

        *** GPGPU-Sim Simulator Version 3.2.2  [build gpgpu-sim_git-commit-7aab8bc3510e3baaa293a5a70e622cbe97784766_modified_0] ***


GPGPU-Sim PTX: simulation mode 0 (can change with PTX_SIM_MODE_FUNC environment variable:
               1=functional simulation only, 0=detailed performance simulator)
GPGPU-Sim: Configuration options:

-network_mode                           1 # Interconnection network mode
-inter_config_file   config_fermi_islip.icnt # Interconnection network config file
-gpgpu_ptx_use_cuobjdump                    1 # Use cuobjdump to extract ptx and sass from binaries
-gpgpu_experimental_lib_support                    0 # Try to extract code from cuda libraries [Broken because of unknown cudaGetExportTable]
-gpgpu_ptx_convert_to_ptxplus                    0 # Convert SASS (native ISA) to ptxplus and run ptxplus
-gpgpu_ptx_force_max_capability                   20 # Force maximum compute capability
-gpgpu_ptx_inst_debug_to_file                    0 # Dump executed instructions' debug information to file
-gpgpu_ptx_inst_debug_file       inst_debug.txt # Executed instructions' debug output file
-gpgpu_ptx_inst_debug_thread_uid                    1 # Thread UID for executed instructions' debug output
-gpgpu_simd_model                       1 # 1 = post-dominator
-gpgpu_shader_core_pipeline              2048:32 # shader core pipeline config, i.e., {<nthread>:<warpsize>}
-gpgpu_tex_cache:l1  16:128:24,L:R:m:N:L,F:128:4,128:2 # per-shader L1 texture cache  (READ-ONLY) config  {<nsets>:<bsize>:<assoc>,<rep>:<wr>:<alloc>:<wr_alloc>,<mshr>:<N>:<merge>,<mq>:<rf>}
-gpgpu_const_cache:l1 128:64:2,L:R:f:N:L,A:2:64,4 # per-shader L1 constant memory cache  (READ-ONLY) config  {<nsets>:<bsize>:<assoc>,<rep>:<wr>:<alloc>:<wr_alloc>,<mshr>:<N>:<merge>,<mq>} 
-gpgpu_cache:il1     8:128:4,L:R:f:N:L,A:2:48,4 # shader L1 instruction cache config  {<nsets>:<bsize>:<assoc>,<rep>:<wr>:<alloc>:<wr_alloc>,<mshr>:<N>:<merge>,<mq>} 
-gpgpu_cache:dl1     64:128:6,L:L:m:N:H,A:128:8,8 # per-shader L1 data cache config  {<nsets>:<bsize>:<assoc>,<rep>:<wr>:<alloc>:<wr_alloc>,<mshr>:<N>:<merge>,<mq> | none}
-gpgpu_cache:dl1PrefL1                 none # per-shader L1 data cache config  {<nsets>:<bsize>:<assoc>,<rep>:<wr>:<alloc>:<wr_alloc>,<mshr>:<N>:<merge>,<mq> | none}
-gpgpu_cache:dl1PrefShared                 none # per-shader L1 data cache config  {<nsets>:<bsize>:<assoc>,<rep>:<wr>:<alloc>:<wr_alloc>,<mshr>:<N>:<merge>,<mq> | none}
-gmem_skip_L1D                          1 # global memory access skip L1D cache (implements -Xptxas -dlcm=cg, default=no skip)
-gpgpu_perfect_mem                      0 # enable perfect memory mode (no cache miss)
-n_regfile_gating_group                    4 # group of lanes that should be read/written together)
-gpgpu_clock_gated_reg_file                    0 # enable clock gated reg file for power calculations
-gpgpu_clock_gated_lanes                    0 # enable clock gated lanes for power calculations
-gpgpu_shader_registers                65536 # Number of registers per shader core. Limits number of concurrent CTAs. (default 8192)
-gpgpu_shader_cta                      32 # Maximum number of concurrent CTAs in shader (default 8)
-gpgpu_num_cta_barriers                   16 # Maximum number of named barriers per CTA (default 16)
-gpgpu_n_clusters                      28 # number of processing clusters
-gpgpu_n_cores_per_cluster                    1 # number of simd cores per cluster
-gpgpu_n_cluster_ejection_buffer_size                    8 # number of packets in ejection buffer
-gpgpu_n_ldst_response_buffer_size                    2 # number of response packets in ld/st unit ejection buffer
-gpgpu_shmem_size                   16384 # Size of shared memory per shader core (default 16kB)
-gpgpu_shmem_size                   98304 # Size of shared memory per shader core (default 16kB)
-gpgpu_shmem_size_PrefL1                16384 # Size of shared memory per shader core (default 16kB)
-gpgpu_shmem_size_PrefShared                16384 # Size of shared memory per shader core (default 16kB)
-gpgpu_shmem_num_banks                   32 # Number of banks in the shared memory in each shader core (default 16)
-gpgpu_shmem_limited_broadcast                    0 # Limit shared memory to do one broadcast per cycle (default on)
-gpgpu_shmem_warp_parts                    1 # Number of portions a warp is divided into for shared memory bank conflict check 
-gpgpu_warpdistro_shader                   -1 # Specify which shader core to collect the warp size distribution from
-gpgpu_warp_issue_shader                    0 # Specify which shader core to collect the warp issue distribution from
-gpgpu_local_mem_map                    1 # Mapping from local memory space address to simulated GPU physical address space (default = enabled)
-gpgpu_num_reg_banks                   32 # Number of register banks (default = 8)
-gpgpu_reg_bank_use_warp_id                    0 # Use warp ID in mapping registers to banks (default = off)
-gpgpu_operand_collector_num_units_sp                   20 # number of collector units (default = 4)
-gpgpu_operand_collector_num_units_sfu                    4 # number of collector units (default = 4)
-gpgpu_operand_collector_num_units_mem                    8 # number of collector units (default = 2)
-gpgpu_operand_collector_num_units_gen                    0 # number of collector units (default = 0)
-gpgpu_operand_collector_num_in_ports_sp                    4 # number of collector unit in ports (default = 1)
-gpgpu_operand_collector_num_in_ports_sfu                    1 # number of collector unit in ports (default = 1)
-gpgpu_operand_collector_num_in_ports_mem                    1 # number of collector unit in ports (default = 1)
-gpgpu_operand_collector_num_in_ports_gen                    0 # number of collector unit in ports (default = 0)
-gpgpu_operand_collector_num_out_ports_sp                    4 # number of collector unit in ports (default = 1)
-gpgpu_operand_collector_num_out_ports_sfu                    1 # number of collector unit in ports (default = 1)
-gpgpu_operand_collector_num_out_ports_mem                    1 # number of collector unit in ports (default = 1)
-gpgpu_operand_collector_num_out_ports_gen                    0 # number of collector unit in ports (default = 0)
-gpgpu_coalesce_arch                   13 # Coalescing arch (default = 13, anything else is off for now)
-gpgpu_num_sched_per_core                    2 # Number of warp schedulers per core
-gpgpu_max_insn_issue_per_warp                    2 # Max number of instructions that can be issued per warp in one cycle by scheduler
-gpgpu_simt_core_sim_order                    1 # Select the simulation order of cores in a cluster (0=Fix, 1=Round-Robin)
-gpgpu_pipeline_widths        4,1,1,4,1,1,6 # Pipeline widths ID_OC_SP,ID_OC_SFU,ID_OC_MEM,OC_EX_SP,OC_EX_SFU,OC_EX_MEM,EX_WB
-gpgpu_num_sp_units                     4 # Number of SP units (default=1)
-gpgpu_num_sfu_units                    1 # Number of SF units (default=1)
-gpgpu_num_mem_units                    1 # Number if ldst units (default=1) WARNING: not hooked up to anything
-gpgpu_scheduler                      gto # Scheduler configuration: < lrr | gto | two_level_active > If two_level_active:<num_active_warps>:<inner_prioritization>:<outer_prioritization>For complete list of prioritization values see shader.h enum scheduler_prioritization_typeDefault: gto
-gpgpu_concurrent_kernel_sm                    0 # Support concurrent kernels on a SM (default = disabled)
-tlb_size                            4096 # Number of tlb entries per SM.
-gpgpu_dram_scheduler                    1 # 0 = fifo, 1 = FR-FCFS (defaul)
-gpgpu_dram_partition_queues              8:8:8:8 # i2$:$2d:d2$:$2i
-l2_ideal                               0 # Use a ideal L2 cache that always hit
-gpgpu_cache:dl2     64:128:16,L:B:m:W:L,A:1024:1024,4:0,32 # unified banked L2 data cache config  {<nsets>:<bsize>:<assoc>,<rep>:<wr>:<alloc>:<wr_alloc>,<mshr>:<N>:<merge>,<mq>}
-gpgpu_cache:dl2_texture_only                    0 # L2 cache used for texture only
-gpgpu_n_mem                           11 # number of memory modules (e.g. memory controllers) in gpu
-gpgpu_n_sub_partition_per_mchannel                    2 # number of memory subpartition in each memory module
-gpgpu_n_mem_per_ctrlr                    1 # number of memory chips per memory controller
-gpgpu_memlatency_stat                   14 # track and display latency statistics 0x2 enables MC, 0x4 enables queue logs
-gpgpu_frfcfs_dram_sched_queue_size                   64 # 0 = unlimited (default); # entries per chip
-gpgpu_dram_return_queue_size                  116 # 0 = unlimited (default); # entries per chip
-gpgpu_dram_buswidth                    4 # default = 4 bytes (8 bytes per cycle at DDR)
-gpgpu_dram_burst_length                    8 # Burst length of each DRAM request (default = 4 data bus cycle)
-dram_data_command_freq_ratio                    4 # Frequency ratio between DRAM data bus and command bus (default = 2 times, i.e. DDR)
-gpgpu_dram_timing_opt nbk=16:CCD=2:RRD=6:RCD=12:RAS=28:RP=12:RC=40: CL=12:WL=4:CDLR=5:WR=12:nbkgrp=1:CCDL=0:RTPL=0 # DRAM timing parameters = {nbk:tCCD:tRRD:tRCD:tRAS:tRP:tRC:CL:WL:tCDLR:tWR:nbkgrp:tCCDL:tRTPL}
-rop_latency                          120 # ROP queue latency (default 85)
-dram_latency                         100 # DRAM latency (default 30)
-gpgpu_mem_addr_mapping dramid@8;00000000.00000000.00000000.00000000.0000RRRR.RRRRRRRR.RBBBCCCC.BCCSSSSS # mapping memory address to dram model {dramid@<start bit>;<memory address map>}
-gpgpu_mem_addr_test                    0 # run sweep test to check address mapping for aliased address
-gpgpu_mem_address_mask                    1 # 0 = old addressing mask, 1 = new addressing mask, 2 = new add. mask + flipped bank sel and chip sel bits
-gpuwattch_xml_file  gpuwattch_geforcegtx1080ti.xml # GPUWattch XML file
-power_simulation_enabled                    1 # Turn on power simulator (1=On, 0=Off)
-power_per_cycle_dump                    0 # Dump detailed power output each cycle
-power_trace_enabled                    0 # produce a file for the power trace (1=On, 0=Off)
-power_trace_zlevel                     6 # Compression level of the power trace output log (0=no comp, 9=highest)
-steady_power_levels_enabled                    0 # produce a file for the steady power levels (1=On, 0=Off)
-steady_state_definition                  8:4 # allowed deviation:number of samples
-gpgpu_max_cycle                        0 # terminates gpu simulation early (0 = no limit)
-gpgpu_max_insn                         0 # terminates gpu simulation early (0 = no limit)
-gpgpu_max_cta                          0 # terminates gpu simulation early (0 = no limit)
-gpgpu_runtime_stat                   500 # display runtime statistics such as dram utilization {<freq>:<flag>}
-liveness_message_freq                    1 # Minimum number of seconds between simulation liveness messages (0 = always print)
-gpgpu_flush_l1_cache                    0 # Flush L1 cache at the end of each kernel call
-gpgpu_flush_l2_cache                    0 # Flush L2 cache at the end of each kernel call
-gpgpu_deadlock_detect                    0 # Stop the simulation at deadlock (1=on (default), 0=off)
-gpgpu_ptx_instruction_classification                    0 # if enabled will classify ptx instruction types per kernel (Max 255 kernels now)
-gpgpu_ptx_sim_mode                     0 # Select between Performance (default) or Functional simulation (1)
-gpgpu_clock_domains 1481.0:2962.0:1481.0:2750.0 # Clock Domain Frequencies in MhZ {<Core Clock>:<ICNT Clock>:<L2 Clock>:<DRAM Clock>}
-gpgpu_max_concurrent_kernel                    8 # maximum kernels that can run concurrently on GPU
-gpgpu_cflog_interval                    0 # Interval between each snapshot in control flow logger
-visualizer_enabled                     0 # Turn on visualizer output (1=On, 0=Off)
-visualizer_outputfile                 NULL # Specifies the output log file for visualizer
-visualizer_zlevel                      6 # Compression level of the visualizer output log (0=no comp, 9=highest)
-trace_enabled                          0 # Turn on traces
-trace_components                    none # comma seperated list of traces to enable. Complete list found in trace_streams.tup. Default none
-trace_sampling_core                    0 # The core which is printed using CORE_DPRINTF. Default 0
-trace_sampling_memory_partition                   -1 # The memory partition which is printed using MEMPART_DPRINTF. Default -1 (i.e. all)
-gddr_size                            1GB # Size of GDDR in MB/GB.(GLOBAL_HEAP_START, GLOBAL_HEAP_START + gddr_size) would be used for unmanged memory, (GLOBAL_HEAP_START + gddr_size, GLOBAL_HEAP_START + gddr_size*2) would be used for managed memory. 
-page_table_walk_latency                  100 # Average page table walk latency (in core cycle).
-eviction_policy                        0 # Select page eviction policy
-reserve_accessed_page_percent                    0 # Percentage of accessed pages reserved from eviction in hope that they will be accessed in next iteration.
-percentage_of_free_page_buffer                    0 # Percentage of free page buffer to trigger the page eviction.
-page_size                            4KB # GDDR page size, only 4KB/2MB avaliable.
-pcie_bandwidth                  16.0GB/s # PCI-e bandwidth per direction, in GB/s.
-enable_nvlink                          0 # Enable nvlink 2.0, 150.0GB/s
-enable_rdma                            0 # Enable remote direct memory access
-migrate_threshold                     10 # Access counter threshold for migrating the page from cpu to gpu
-sim_prof_enable                        1 # Enable gpgpu-sim profiler
-hardware_prefetch                      1 # Select gpgpu-sim hardware prefetcher
-hwprefetch_oversub                     0 # Select gpgpu-sim hardware prefetcher under over-subscription
-page_fault_latency                 66645 # Average fault latency (in core cycle).
-enable_accurate_simulation                    0 # Enable page fault functional simulation.
-enable_ptx_file_line_stats                    1 # Turn on PTX source line statistic profiling. (1 = On)
-ptx_line_stats_filename gpgpu_inst_stats.txt # Output file for PTX source line statistics.
-gpgpu_kernel_launch_latency               222150 # Kernel launch latency in cycles. Default: 0
-gpgpu_cdp_enabled                      0 # Turn on CDP
-save_embedded_ptx                      0 # saves ptx files embedded in binary as <n>.ptx
-keep                                   0 # keep intermediate files created by GPGPU-Sim when interfacing with external programs
-gpgpu_ptx_save_converted_ptxplus                    0 # Saved converted ptxplus to a file
-ptx_opcode_latency_int         4,13,4,5,145 # Opcode latencies for integers <ADD,MAX,MUL,MAD,DIV>Default 1,1,19,25,145
-ptx_opcode_latency_fp          4,13,4,5,39 # Opcode latencies for single precision floating points <ADD,MAX,MUL,MAD,DIV>Default 1,1,1,1,30
-ptx_opcode_latency_dp         8,19,8,8,330 # Opcode latencies for double precision floating points <ADD,MAX,MUL,MAD,DIV>Default 8,8,8,8,335
-ptx_opcode_initiation_int            1,2,2,2,8 # Opcode initiation intervals for integers <ADD,MAX,MUL,MAD,DIV>Default 1,1,4,4,32
-ptx_opcode_initiation_fp            1,2,1,1,4 # Opcode initiation intervals for single precision floating points <ADD,MAX,MUL,MAD,DIV>Default 1,1,1,1,5
-ptx_opcode_initiation_dp          1,2,1,1,130 # Opcode initiation intervals for double precision floating points <ADD,MAX,MUL,MAD,DIV>Default 8,8,8,8,130
-cdp_latency         7200,8000,100,12000,1600 # CDP API latency <cudaStreamCreateWithFlags, cudaGetParameterBufferV2_init_perWarp, cudaGetParameterBufferV2_perKernel, cudaLaunchDeviceV2_init_perWarp, cudaLaunchDevicV2_perKernel>Default 7200,8000,100,12000,1600
DRAM Timing Options:
nbk                                    16 # number of banks
CCD                                     2 # column to column delay
RRD                                     6 # minimal delay between activation of rows in different banks
RCD                                    12 # row to column delay
RAS                                    28 # time needed to activate row
RP                                     12 # time needed to precharge (deactivate) row
RC                                     40 # row cycle time
CDLR                                    5 # switching from write to read (changes tWTR)
WR                                     12 # last data-in to row precharge
CL                                     12 # CAS latency
WL                                      4 # Write latency
nbkgrp                                  1 # number of bank groups
CCDL                                    0 # column to column delay between accesses to different bank groups
RTPL                                    0 # read to precharge delay between accesses to different bank groups
Total number of memory sub partition = 22
addr_dec_mask[CHIP]  = 0000000000000000 	high:64 low:0
addr_dec_mask[BK]    = 0000000000007080 	high:15 low:7
addr_dec_mask[ROW]   = 000000000fff8000 	high:28 low:15
addr_dec_mask[COL]   = 0000000000000f7f 	high:12 low:0
addr_dec_mask[BURST] = 000000000000001f 	high:5 low:0
sub_partition_id_mask = 0000000000000080
GPGPU-Sim uArch: clock freqs: 1481000000.000000:2962000000.000000:1481000000.000000:2750000000.000000
GPGPU-Sim uArch: clock periods: 0.00000000067521944632:0.00000000033760972316:0.00000000067521944632:0.00000000036363636364
*** Initializing Memory Statistics ***
GPGPU-Sim uArch: interconnect node map (shaderID+MemID to icntID)
GPGPU-Sim uArch: Memory nodes ID start from index: 28
GPGPU-Sim uArch:    0   1   2   3   4   5   6
GPGPU-Sim uArch:    7   8   9  10  11  12  13
GPGPU-Sim uArch:   14  15  16  17  18  19  20
GPGPU-Sim uArch:   21  22  23  24  25  26  27
GPGPU-Sim uArch:   28  29  30  31  32  33  34
GPGPU-Sim uArch:   35  36  37  38  39  40  41
GPGPU-Sim uArch:   42  43  44  45  46  47  48
GPGPU-Sim uArch:   49
GPGPU-Sim uArch: interconnect node reverse map (icntID to shaderID+MemID)
GPGPU-Sim uArch: Memory nodes start from ID: 28
GPGPU-Sim uArch:    0   1   2   3   4   5   6
GPGPU-Sim uArch:    7   8   9  10  11  12  13
GPGPU-Sim uArch:   14  15  16  17  18  19  20
GPGPU-Sim uArch:   21  22  23  24  25  26  27
GPGPU-Sim uArch:   28  29  30  31  32  33  34
GPGPU-Sim uArch:   35  36  37  38  39  40  41
GPGPU-Sim uArch:   42  43  44  45  46  47  48
GPGPU-Sim uArch:   49
3209451277f8e469ef35eea992e408b4  /home/gpuser/Desktop/gpgpu-sim_UVMSmart/benchmarks/Managed/stencil/main
GPGPU-Sim uArch: performance model initialization complete.
GPGPU-Sim PTX: __cudaRegisterFatBinary, fat_cubin_handle = 1, filename=default
self exe links to: /home/gpuser/Desktop/gpgpu-sim_UVMSmart/benchmarks/Managed/stencil/main
Running md5sum using "md5sum /home/gpuser/Desktop/gpgpu-sim_UVMSmart/benchmarks/Managed/stencil/main "
Parsing file _cuobjdump_complete_output_ZH7bFK
######### cuobjdump parser ########
## Adding new section ELF
Adding arch: sm_20
Adding identifier: default
## Adding new section ELF
Adding arch: sm_20
Adding identifier: default
## Adding new section PTX
Adding ptx filename: _cuobjdump_1.ptx
Adding arch: sm_20
Adding identifier: default
## Adding new section ELF
Adding arch: sm_20
Adding identifier: default
## Adding new section PTX
Adding ptx filename: _cuobjdump_2.ptx
Adding arch: sm_20
Adding identifier: default
Done parsing!!!
GPGPU-Sim PTX: __cudaRegisterFatBinary, fat_cubin_handle = 2, filename=default
GPGPU-Sim PTX: __cudaRegisterFunction _Z24block2D_hybrid_coarsen_xffPfS_iii : hostFun 0x0x401496, fat_cubin_handle = 2
GPGPU-Sim PTX: allocating shared region for "sh_A0" from 0x0 to 0x0 (shared memory space)
GPGPU-Sim PTX: instruction assembly for function '_Z24block2D_hybrid_coarsen_xffPfS_iii'...   done.
GPGPU-Sim PTX: finding reconvergence points for '_Z24block2D_hybrid_coarsen_xffPfS_iii'...
GPGPU-Sim PTX: Finding dominators for '_Z24block2D_hybrid_coarsen_xffPfS_iii'...
GPGPU-Sim PTX: Finding immediate dominators for '_Z24block2D_hybrid_coarsen_xffPfS_iii'...
GPGPU-Sim PTX: Finding postdominators for '_Z24block2D_hybrid_coarsen_xffPfS_iii'...
GPGPU-Sim PTX: Finding immediate postdominators for '_Z24block2D_hybrid_coarsen_xffPfS_iii'...
GPGPU-Sim PTX: pre-decoding instructions for '_Z24block2D_hybrid_coarsen_xffPfS_iii'...
GPGPU-Sim PTX: reconvergence points for _Z24block2D_hybrid_coarsen_xffPfS_iii...
GPGPU-Sim PTX:  1 (potential) branch divergence @  PC=0x170 (_2.ptx:82) @!%p13 bra BB0_2;
GPGPU-Sim PTX:    immediate post dominator      @  PC=0x200 (_2.ptx:104) mov.f32 %f64, %f69;
GPGPU-Sim PTX:  2 (potential) branch divergence @  PC=0x178 (_2.ptx:83) bra.uni BB0_1;
GPGPU-Sim PTX:    immediate post dominator      @  PC=0x180 (_2.ptx:86) mad.lo.s32 %r33, %r3, %r6, %r1;
GPGPU-Sim PTX:  3 (potential) branch divergence @  PC=0x228 (_2.ptx:109) @!%p16 bra BB0_4;
GPGPU-Sim PTX:    immediate post dominator      @  PC=0x2b0 (_2.ptx:130) mov.f32 %f67, %f68;
GPGPU-Sim PTX:  4 (potential) branch divergence @  PC=0x230 (_2.ptx:110) bra.uni BB0_3;
GPGPU-Sim PTX:    immediate post dominator      @  PC=0x238 (_2.ptx:113) mad.lo.s32 %r58, %r3, %r6, %r2;
GPGPU-Sim PTX:  5 (potential) branch divergence @  PC=0x2d0 (_2.ptx:134) @%p17 bra BB0_33;
GPGPU-Sim PTX:    immediate post dominator      @  PC=0x868 (_2.ptx:370) ret;
GPGPU-Sim PTX:  6 (potential) branch divergence @  PC=0x300 (_2.ptx:143) @!%p13 bra BB0_8;
GPGPU-Sim PTX:    immediate post dominator      @  PC=0x348 (_2.ptx:156) @!%p5 bra BB0_19;
GPGPU-Sim PTX:  7 (potential) branch divergence @  PC=0x308 (_2.ptx:144) bra.uni BB0_7;
GPGPU-Sim PTX:    immediate post dominator      @  PC=0x310 (_2.ptx:147) add.s32 %r75, %r273, 1;
GPGPU-Sim PTX:  8 (potential) branch divergence @  PC=0x348 (_2.ptx:156) @!%p5 bra BB0_19;
GPGPU-Sim PTX:    immediate post dominator      @  PC=0x590 (_2.ptx:251) @!%p16 bra BB0_21;
GPGPU-Sim PTX:  9 (potential) branch divergence @  PC=0x350 (_2.ptx:157) bra.uni BB0_9;
GPGPU-Sim PTX:    immediate post dominator      @  PC=0x358 (_2.ptx:160) add.s32 %r89, %r13, -1;
GPGPU-Sim PTX: 10 (potential) branch divergence @  PC=0x368 (_2.ptx:162) @%p21 bra BB0_11;
GPGPU-Sim PTX:    immediate post dominator      @  PC=0x3e8 (_2.ptx:184) setp.eq.s32%p22, %r15, 0;
GPGPU-Sim PTX: 11 (potential) branch divergence @  PC=0x370 (_2.ptx:163) bra.uni BB0_10;
GPGPU-Sim PTX:    immediate post dominator      @  PC=0x3b8 (_2.ptx:176) shl.b32 %r92, %r11, 1;
GPGPU-Sim PTX: 12 (potential) branch divergence @  PC=0x3b0 (_2.ptx:173) bra.uni BB0_12;
GPGPU-Sim PTX:    immediate post dominator      @  PC=0x3e8 (_2.ptx:184) setp.eq.s32%p22, %r15, 0;
GPGPU-Sim PTX: 13 (potential) branch divergence @  PC=0x3f0 (_2.ptx:185) @%p22 bra BB0_14;
GPGPU-Sim PTX:    immediate post dominator      @  PC=0x470 (_2.ptx:207) setp.eq.s32%p23, %r12, 0;
GPGPU-Sim PTX: 14 (potential) branch divergence @  PC=0x3f8 (_2.ptx:186) bra.uni BB0_13;
GPGPU-Sim PTX:    immediate post dominator      @  PC=0x440 (_2.ptx:199) shl.b32 %r111, %r11, 1;
GPGPU-Sim PTX: 15 (potential) branch divergence @  PC=0x438 (_2.ptx:196) bra.uni BB0_15;
GPGPU-Sim PTX:    immediate post dominator      @  PC=0x470 (_2.ptx:207) setp.eq.s32%p23, %r12, 0;
GPGPU-Sim PTX: 16 (potential) branch divergence @  PC=0x478 (_2.ptx:208) @%p23 bra BB0_17;
GPGPU-Sim PTX:    immediate post dominator      @  PC=0x4f0 (_2.ptx:229) mad.lo.s32 %r149, %r273, %r7, %r3;
GPGPU-Sim PTX: 17 (potential) branch divergence @  PC=0x480 (_2.ptx:209) bra.uni BB0_16;
GPGPU-Sim PTX:    immediate post dominator      @  PC=0x4c8 (_2.ptx:222) shl.b32 %r129, %r11, 1;
GPGPU-Sim PTX: 18 (potential) branch divergence @  PC=0x4c0 (_2.ptx:219) bra.uni BB0_18;
GPGPU-Sim PTX:    immediate post dominator      @  PC=0x4f0 (_2.ptx:229) mad.lo.s32 %r149, %r273, %r7, %r3;
GPGPU-Sim PTX: 19 (potential) branch divergence @  PC=0x590 (_2.ptx:251) @!%p16 bra BB0_21;
GPGPU-Sim PTX:    immediate post dominator      @  PC=0x5d8 (_2.ptx:264) @!%p4 bra BB0_32;
GPGPU-Sim PTX: 20 (potential) branch divergence @  PC=0x598 (_2.ptx:252) bra.uni BB0_20;
GPGPU-Sim PTX:    immediate post dominator      @  PC=0x5a0 (_2.ptx:255) add.s32 %r168, %r273, 1;
GPGPU-Sim PTX: 21 (potential) branch divergence @  PC=0x5d8 (_2.ptx:264) @!%p4 bra BB0_32;
GPGPU-Sim PTX:    immediate post dominator      @  PC=0x820 (_2.ptx:359) bar.sync 0;
GPGPU-Sim PTX: 22 (potential) branch divergence @  PC=0x5e0 (_2.ptx:265) bra.uni BB0_22;
GPGPU-Sim PTX:    immediate post dominator      @  PC=0x5e8 (_2.ptx:268) add.s32 %r183, %r13, -1;
GPGPU-Sim PTX: 23 (potential) branch divergence @  PC=0x5f8 (_2.ptx:270) @%p27 bra BB0_24;
GPGPU-Sim PTX:    immediate post dominator      @  PC=0x678 (_2.ptx:292) setp.eq.s32%p28, %r15, 0;
GPGPU-Sim PTX: 24 (potential) branch divergence @  PC=0x600 (_2.ptx:271) bra.uni BB0_23;
GPGPU-Sim PTX:    immediate post dominator      @  PC=0x648 (_2.ptx:284) shl.b32 %r186, %r11, 1;
GPGPU-Sim PTX: 25 (potential) branch divergence @  PC=0x640 (_2.ptx:281) bra.uni BB0_25;
GPGPU-Sim PTX:    immediate post dominator      @  PC=0x678 (_2.ptx:292) setp.eq.s32%p28, %r15, 0;
GPGPU-Sim PTX: 26 (potential) branch divergence @  PC=0x680 (_2.ptx:293) @%p28 bra BB0_27;
GPGPU-Sim PTX:    immediate post dominator      @  PC=0x700 (_2.ptx:315) shl.b32 %r228, %r11, 1;
GPGPU-Sim PTX: 27 (potential) branch divergence @  PC=0x688 (_2.ptx:294) bra.uni BB0_26;
GPGPU-Sim PTX:    immediate post dominator      @  PC=0x6d0 (_2.ptx:307) shl.b32 %r207, %r11, 1;
GPGPU-Sim PTX: 28 (potential) branch divergence @  PC=0x6c8 (_2.ptx:304) bra.uni BB0_28;
GPGPU-Sim PTX:    immediate post dominator      @  PC=0x700 (_2.ptx:315) shl.b32 %r228, %r11, 1;
GPGPU-Sim PTX: 29 (potential) branch divergence @  PC=0x718 (_2.ptx:318) @%p29 bra BB0_30;
GPGPU-Sim PTX:    immediate post dominator      @  PC=0x788 (_2.ptx:338) mad.lo.s32 %r253, %r273, %r7, %r3;
GPGPU-Sim PTX: 30 (potential) branch divergence @  PC=0x720 (_2.ptx:319) bra.uni BB0_29;
GPGPU-Sim PTX:    immediate post dominator      @  PC=0x768 (_2.ptx:332) mad.lo.s32 %r235, %r228, %r15, %r19;
GPGPU-Sim PTX: 31 (potential) branch divergence @  PC=0x760 (_2.ptx:329) bra.uni BB0_31;
GPGPU-Sim PTX:    immediate post dominator      @  PC=0x788 (_2.ptx:338) mad.lo.s32 %r253, %r273, %r7, %r3;
GPGPU-Sim PTX: 32 (potential) branch divergence @  PC=0x860 (_2.ptx:367) @%p30 bra BB0_6;
GPGPU-Sim PTX:    immediate post dominator      @  PC=0x868 (_2.ptx:370) ret;
GPGPU-Sim PTX: ... end of reconvergence points for _Z24block2D_hybrid_coarsen_xffPfS_iii
GPGPU-Sim PTX: ... done pre-decoding instructions for '_Z24block2D_hybrid_coarsen_xffPfS_iii'.
GPGPU-Sim PTX: finished parsing EMBEDDED .ptx file _2.ptx
Adding _cuobjdump_1.ptx with cubin handle 2
GPGPU-Sim PTX: extracting embedded .ptx to temporary file "_ptx_1fuh1s"
Running: cat _ptx_1fuh1s | sed 's/.version 1.5/.version 1.4/' | sed 's/, texmode_independent//' | sed 's/\(\.extern \.const\[1\] .b8 \w\+\)\[\]/\1\[1\]/' | sed 's/const\[.\]/const\[0\]/g' > _ptx2_2MTpnb
GPGPU-Sim PTX: generating ptxinfo using "$CUDA_INSTALL_PATH/bin/ptxas --gpu-name=sm_20 -v _ptx2_2MTpnb --output-file  /dev/null 2> _ptx_1fuh1sinfo"
GPGPU-Sim PTX: Kernel '_Z24block2D_hybrid_coarsen_xffPfS_iii' : regs=20, lmem=0, smem=0, cmem=68
GPGPU-Sim PTX: removing ptxinfo using "rm -f _ptx_1fuh1s _ptx2_2MTpnb _ptx_1fuh1sinfo"
GPGPU-Sim PTX: loading globals with explicit initializers... 
GPGPU-Sim PTX: finished loading globals (0 bytes total).
GPGPU-Sim PTX: loading constants with explicit initializers...  done.
CUDA accelerated 7 points stencil codes****
Original version by Li-Wen Chang <lchang20@illinois.edu> and I-Jui Sung<sung10@illinois.edu>
This version maintained by Chris Rodrigues  ***********

GPGPU-Sim PTX: cudaLaunch for 0x0x401496 (mode=performance simulation) on stream 0
GPGPU-Sim PTX: pushing kernel '_Z24block2D_hybrid_coarsen_xffPfS_iii' to stream 0, gridDim= (2,32,1) blockDim = (32,4,1) 
GPGPU-Sim uArch: Shader 1 bind to kernel 1 '_Z24block2D_hybrid_coarsen_xffPfS_iii'
GPGPU-Sim uArch: CTA/core = 16, limited by: threads
GPGPU-Sim uArch: Shader 2 bind to kernel 1 '_Z24block2D_hybrid_coarsen_xffPfS_iii'
GPGPU-Sim uArch: Shader 3 bind to kernel 1 '_Z24block2D_hybrid_coarsen_xffPfS_iii'
GPGPU-Sim uArch: Shader 4 bind to kernel 1 '_Z24block2D_hybrid_coarsen_xffPfS_iii'
GPGPU-Sim uArch: Shader 5 bind to kernel 1 '_Z24block2D_hybrid_coarsen_xffPfS_iii'
GPGPU-Sim uArch: Shader 6 bind to kernel 1 '_Z24block2D_hybrid_coarsen_xffPfS_iii'
GPGPU-Sim uArch: Shader 7 bind to kernel 1 '_Z24block2D_hybrid_coarsen_xffPfS_iii'
GPGPU-Sim uArch: Shader 8 bind to kernel 1 '_Z24block2D_hybrid_coarsen_xffPfS_iii'
GPGPU-Sim uArch: Shader 9 bind to kernel 1 '_Z24block2D_hybrid_coarsen_xffPfS_iii'
GPGPU-Sim uArch: Shader 10 bind to kernel 1 '_Z24block2D_hybrid_coarsen_xffPfS_iii'
GPGPU-Sim uArch: Shader 11 bind to kernel 1 '_Z24block2D_hybrid_coarsen_xffPfS_iii'
GPGPU-Sim uArch: Shader 12 bind to kernel 1 '_Z24block2D_hybrid_coarsen_xffPfS_iii'
GPGPU-Sim uArch: Shader 13 bind to kernel 1 '_Z24block2D_hybrid_coarsen_xffPfS_iii'
GPGPU-Sim uArch: Shader 14 bind to kernel 1 '_Z24block2D_hybrid_coarsen_xffPfS_iii'
GPGPU-Sim uArch: Shader 15 bind to kernel 1 '_Z24block2D_hybrid_coarsen_xffPfS_iii'
GPGPU-Sim uArch: Shader 16 bind to kernel 1 '_Z24block2D_hybrid_coarsen_xffPfS_iii'
GPGPU-Sim uArch: Shader 17 bind to kernel 1 '_Z24block2D_hybrid_coarsen_xffPfS_iii'
GPGPU-Sim uArch: Shader 18 bind to kernel 1 '_Z24block2D_hybrid_coarsen_xffPfS_iii'
GPGPU-Sim uArch: Shader 19 bind to kernel 1 '_Z24block2D_hybrid_coarsen_xffPfS_iii'
GPGPU-Sim uArch: Shader 20 bind to kernel 1 '_Z24block2D_hybrid_coarsen_xffPfS_iii'
GPGPU-Sim uArch: Shader 21 bind to kernel 1 '_Z24block2D_hybrid_coarsen_xffPfS_iii'
GPGPU-Sim uArch: Shader 22 bind to kernel 1 '_Z24block2D_hybrid_coarsen_xffPfS_iii'
GPGPU-Sim uArch: Shader 23 bind to kernel 1 '_Z24block2D_hybrid_coarsen_xffPfS_iii'
GPGPU-Sim uArch: Shader 24 bind to kernel 1 '_Z24block2D_hybrid_coarsen_xffPfS_iii'
GPGPU-Sim uArch: Shader 25 bind to kernel 1 '_Z24block2D_hybrid_coarsen_xffPfS_iii'
GPGPU-Sim uArch: Shader 26 bind to kernel 1 '_Z24block2D_hybrid_coarsen_xffPfS_iii'
GPGPU-Sim uArch: Shader 27 bind to kernel 1 '_Z24block2D_hybrid_coarsen_xffPfS_iii'
GPGPU-Sim uArch: Shader 0 bind to kernel 1 '_Z24block2D_hybrid_coarsen_xffPfS_iii'
Destroy streams for kernel 1: size 0
kernel_name = _Z24block2D_hybrid_coarsen_xffPfS_iii 
kernel_launch_uid = 1 
gpu_sim_cycle = 530218
gpu_sim_insn = 28848876
gpu_ipc =      54.4095
gpu_tot_sim_cycle = 752368
gpu_tot_sim_insn = 28848876
gpu_tot_ipc =      38.3441
gpu_tot_issued_cta = 64
max_total_param_size = 0
gpu_stall_dramfull = 96193
gpu_stall_icnt2sh    = 2050
partiton_reqs_in_parallel = 11568603
partiton_reqs_in_parallel_total    = 0
partiton_level_parallism =      21.8186
partiton_level_parallism_total  =      15.3763
partiton_reqs_in_parallel_util = 11568603
partiton_reqs_in_parallel_util_total    = 0
gpu_sim_cycle_parition_util = 529207
gpu_tot_sim_cycle_parition_util    = 0
partiton_level_parallism_util =      21.8603
partiton_level_parallism_util_total  =      21.8603
partiton_replys_in_parallel = 47008
partiton_replys_in_parallel_total    = 0
L2_BW  =       8.4033 GB/Sec
L2_BW_total  =       5.9221 GB/Sec
gpu_total_sim_rate=27037

========= Core cache stats =========
L1I_cache:
	L1I_total_cache_accesses = 579228
	L1I_total_cache_misses = 3182
	L1I_total_cache_miss_rate = 0.0055
	L1I_total_cache_pending_hits = 0
	L1I_total_cache_reservation_fails = 0
L1D_cache:
	L1D_cache_core[0]: Access = 0, Miss = 0, Miss_rate = -nan, Pending_hits = 0, Reservation_fails = 0
	L1D_cache_core[1]: Access = 0, Miss = 0, Miss_rate = -nan, Pending_hits = 0, Reservation_fails = 0
	L1D_cache_core[2]: Access = 0, Miss = 0, Miss_rate = -nan, Pending_hits = 0, Reservation_fails = 0
	L1D_cache_core[3]: Access = 0, Miss = 0, Miss_rate = -nan, Pending_hits = 0, Reservation_fails = 0
	L1D_cache_core[4]: Access = 0, Miss = 0, Miss_rate = -nan, Pending_hits = 0, Reservation_fails = 0
	L1D_cache_core[5]: Access = 0, Miss = 0, Miss_rate = -nan, Pending_hits = 0, Reservation_fails = 0
	L1D_cache_core[6]: Access = 0, Miss = 0, Miss_rate = -nan, Pending_hits = 0, Reservation_fails = 0
	L1D_cache_core[7]: Access = 0, Miss = 0, Miss_rate = -nan, Pending_hits = 0, Reservation_fails = 0
	L1D_cache_core[8]: Access = 0, Miss = 0, Miss_rate = -nan, Pending_hits = 0, Reservation_fails = 0
	L1D_cache_core[9]: Access = 0, Miss = 0, Miss_rate = -nan, Pending_hits = 0, Reservation_fails = 0
	L1D_cache_core[10]: Access = 0, Miss = 0, Miss_rate = -nan, Pending_hits = 0, Reservation_fails = 0
	L1D_cache_core[11]: Access = 0, Miss = 0, Miss_rate = -nan, Pending_hits = 0, Reservation_fails = 0
	L1D_cache_core[12]: Access = 0, Miss = 0, Miss_rate = -nan, Pending_hits = 0, Reservation_fails = 0
	L1D_cache_core[13]: Access = 0, Miss = 0, Miss_rate = -nan, Pending_hits = 0, Reservation_fails = 0
	L1D_cache_core[14]: Access = 0, Miss = 0, Miss_rate = -nan, Pending_hits = 0, Reservation_fails = 0
	L1D_cache_core[15]: Access = 0, Miss = 0, Miss_rate = -nan, Pending_hits = 0, Reservation_fails = 0
	L1D_cache_core[16]: Access = 0, Miss = 0, Miss_rate = -nan, Pending_hits = 0, Reservation_fails = 0
	L1D_cache_core[17]: Access = 0, Miss = 0, Miss_rate = -nan, Pending_hits = 0, Reservation_fails = 0
	L1D_cache_core[18]: Access = 0, Miss = 0, Miss_rate = -nan, Pending_hits = 0, Reservation_fails = 0
	L1D_cache_core[19]: Access = 0, Miss = 0, Miss_rate = -nan, Pending_hits = 0, Reservation_fails = 0
	L1D_cache_core[20]: Access = 0, Miss = 0, Miss_rate = -nan, Pending_hits = 0, Reservation_fails = 0
	L1D_cache_core[21]: Access = 0, Miss = 0, Miss_rate = -nan, Pending_hits = 0, Reservation_fails = 0
	L1D_cache_core[22]: Access = 0, Miss = 0, Miss_rate = -nan, Pending_hits = 0, Reservation_fails = 0
	L1D_cache_core[23]: Access = 0, Miss = 0, Miss_rate = -nan, Pending_hits = 0, Reservation_fails = 0
	L1D_cache_core[24]: Access = 0, Miss = 0, Miss_rate = -nan, Pending_hits = 0, Reservation_fails = 0
	L1D_cache_core[25]: Access = 0, Miss = 0, Miss_rate = -nan, Pending_hits = 0, Reservation_fails = 0
	L1D_cache_core[26]: Access = 0, Miss = 0, Miss_rate = -nan, Pending_hits = 0, Reservation_fails = 0
	L1D_cache_core[27]: Access = 0, Miss = 0, Miss_rate = -nan, Pending_hits = 0, Reservation_fails = 0
	L1D_total_cache_accesses = 0
	L1D_total_cache_misses = 0
	L1D_total_cache_pending_hits = 0
	L1D_total_cache_reservation_fails = 0
	L1D_cache_data_port_util = 0.000
	L1D_cache_fill_port_util = 0.000
L1C_cache:
	L1C_total_cache_accesses = 1792
	L1C_total_cache_misses = 1632
	L1C_total_cache_miss_rate = 0.9107
	L1C_total_cache_pending_hits = 0
	L1C_total_cache_reservation_fails = 1444
L1T_cache:
	L1T_total_cache_accesses = 0
	L1T_total_cache_misses = 0
	L1T_total_cache_pending_hits = 0
	L1T_total_cache_reservation_fails = 0

Total_core_cache_stats:
	Total_core_cache_stats_breakdown[GLOBAL_ACC_R][HIT] = 0
	Total_core_cache_stats_breakdown[GLOBAL_ACC_R][HIT_RESERVED] = 0
	Total_core_cache_stats_breakdown[GLOBAL_ACC_R][MISS] = 0
	Total_core_cache_stats_breakdown[GLOBAL_ACC_R][RESERVATION_FAIL] = 0
	Total_core_cache_stats_breakdown[LOCAL_ACC_R][HIT] = 0
	Total_core_cache_stats_breakdown[LOCAL_ACC_R][HIT_RESERVED] = 0
	Total_core_cache_stats_breakdown[LOCAL_ACC_R][MISS] = 0
	Total_core_cache_stats_breakdown[LOCAL_ACC_R][RESERVATION_FAIL] = 0
	Total_core_cache_stats_breakdown[CONST_ACC_R][HIT] = 160
	Total_core_cache_stats_breakdown[CONST_ACC_R][HIT_RESERVED] = 0
	Total_core_cache_stats_breakdown[CONST_ACC_R][MISS] = 1632
	Total_core_cache_stats_breakdown[CONST_ACC_R][RESERVATION_FAIL] = 1444
	Total_core_cache_stats_breakdown[TEXTURE_ACC_R][HIT] = 0
	Total_core_cache_stats_breakdown[TEXTURE_ACC_R][HIT_RESERVED] = 0
	Total_core_cache_stats_breakdown[TEXTURE_ACC_R][MISS] = 0
	Total_core_cache_stats_breakdown[TEXTURE_ACC_R][RESERVATION_FAIL] = 0
	Total_core_cache_stats_breakdown[GLOBAL_ACC_W][HIT] = 0
	Total_core_cache_stats_breakdown[GLOBAL_ACC_W][HIT_RESERVED] = 0
	Total_core_cache_stats_breakdown[GLOBAL_ACC_W][MISS] = 0
	Total_core_cache_stats_breakdown[GLOBAL_ACC_W][RESERVATION_FAIL] = 0
	Total_core_cache_stats_breakdown[LOCAL_ACC_W][HIT] = 0
	Total_core_cache_stats_breakdown[LOCAL_ACC_W][HIT_RESERVED] = 0
	Total_core_cache_stats_breakdown[LOCAL_ACC_W][MISS] = 0
	Total_core_cache_stats_breakdown[LOCAL_ACC_W][RESERVATION_FAIL] = 0
	Total_core_cache_stats_breakdown[L1_WRBK_ACC][HIT] = 0
	Total_core_cache_stats_breakdown[L1_WRBK_ACC][HIT_RESERVED] = 0
	Total_core_cache_stats_breakdown[L1_WRBK_ACC][MISS] = 0
	Total_core_cache_stats_breakdown[L1_WRBK_ACC][RESERVATION_FAIL] = 0
	Total_core_cache_stats_breakdown[L2_WRBK_ACC][HIT] = 0
	Total_core_cache_stats_breakdown[L2_WRBK_ACC][HIT_RESERVED] = 0
	Total_core_cache_stats_breakdown[L2_WRBK_ACC][MISS] = 0
	Total_core_cache_stats_breakdown[L2_WRBK_ACC][RESERVATION_FAIL] = 0
	Total_core_cache_stats_breakdown[INST_ACC_R][HIT] = 576046
	Total_core_cache_stats_breakdown[INST_ACC_R][HIT_RESERVED] = 0
	Total_core_cache_stats_breakdown[INST_ACC_R][MISS] = 3182
	Total_core_cache_stats_breakdown[INST_ACC_R][RESERVATION_FAIL] = 0
	Total_core_cache_stats_breakdown[L1_WR_ALLOC_R][HIT] = 0
	Total_core_cache_stats_breakdown[L1_WR_ALLOC_R][HIT_RESERVED] = 0
	Total_core_cache_stats_breakdown[L1_WR_ALLOC_R][MISS] = 0
	Total_core_cache_stats_breakdown[L1_WR_ALLOC_R][RESERVATION_FAIL] = 0
	Total_core_cache_stats_breakdown[L2_WR_ALLOC_R][HIT] = 0
	Total_core_cache_stats_breakdown[L2_WR_ALLOC_R][HIT_RESERVED] = 0
	Total_core_cache_stats_breakdown[L2_WR_ALLOC_R][MISS] = 0
	Total_core_cache_stats_breakdown[L2_WR_ALLOC_R][RESERVATION_FAIL] = 0
	Total_core_cache_stats_breakdown[CONST_ACC_R][TOTAL_ACCESS] = 1792
	Total_core_cache_stats_breakdown[INST_ACC_R][TOTAL_ACCESS] = 579228
Shader 0 warp_id issue ditsribution:
warp_id:
0, 1, 2, 3, 4, 5, 6, 7, 
distro:
4828, 4645, 4648, 4818, 4827, 4641, 4648, 4817, 
gpgpu_n_tot_thrd_icount = 33319424
gpgpu_n_tot_w_icount = 1041232
gpgpu_n_stall_shd_mem = 190418
gpgpu_n_mem_read_local = 0
gpgpu_n_mem_write_local = 0
gpgpu_n_mem_read_global = 31384
gpgpu_n_mem_write_global = 15120
gpgpu_n_mem_texture = 0
gpgpu_n_mem_const = 28
gpgpu_n_load_insn  = 766208
gpgpu_n_store_insn = 476280
gpgpu_n_shmem_insn = 3155288
gpgpu_n_tex_insn = 0
gpgpu_n_const_mem_insn = 0
gpgpu_n_param_mem_insn = 57344
gpgpu_n_shmem_bkconflict = 0
gpgpu_n_cache_bkconflict = 0
gpgpu_n_intrawarp_mshr_merge = 0
gpgpu_n_cmem_portconflict = 1444
gpgpu_stall_shd_mem[c_mem][bk_conf] = 1444
gpgpu_stall_shd_mem[c_mem][mshr_rc] = 0
gpgpu_stall_shd_mem[c_mem][icnt_rc] = 0
gpgpu_stall_shd_mem[c_mem][data_port_stall] = 0
gpgpu_stall_shd_mem[t_mem][mshr_rc] = 0
gpgpu_stall_shd_mem[t_mem][icnt_rc] = 0
gpgpu_stall_shd_mem[t_mem][data_port_stall] = 0
gpgpu_stall_shd_mem[s_mem][bk_conf] = 0
gpgpu_stall_shd_mem[gl_mem][bk_conf] = 0
gpgpu_stall_shd_mem[gl_mem][coal_stall] = 3
gpgpu_stall_shd_mem[gl_mem][data_port_stall] = 0
gpgpu_stall_shd_mem[g_mem_ld][mshr_rc] = 0
gpgpu_stall_shd_mem[g_mem_ld][icnt_rc] = 188971
gpgpu_stall_shd_mem[g_mem_ld][wb_icnt_rc] = 0
gpgpu_stall_shd_mem[g_mem_ld][wb_rsrv_fail] = 0
gpgpu_stall_shd_mem[g_mem_st][mshr_rc] = 0
gpgpu_stall_shd_mem[g_mem_st][icnt_rc] = 0
gpgpu_stall_shd_mem[g_mem_st][wb_icnt_rc] = 0
gpgpu_stall_shd_mem[g_mem_st][wb_rsrv_fail] = 0
gpgpu_stall_shd_mem[l_mem_ld][mshr_rc] = 0
gpgpu_stall_shd_mem[l_mem_ld][icnt_rc] = 0
gpgpu_stall_shd_mem[l_mem_ld][wb_icnt_rc] = 0
gpgpu_stall_shd_mem[l_mem_ld][wb_rsrv_fail] = 0
gpgpu_stall_shd_mem[l_mem_st][mshr_rc] = 0
gpgpu_stall_shd_mem[l_mem_st][icnt_rc] = 0
gpgpu_stall_shd_mem[l_mem_ld][wb_icnt_rc] = 0
gpgpu_stall_shd_mem[l_mem_ld][wb_rsrv_fail] = 0
gpu_reg_bank_conflict_stalls = 0
Warp Occupancy Distribution:
Stall:31837	W0_Idle:6302626	W0_Scoreboard:22440110	W1:60480	W2:0	W3:0	W4:0	W5:0	W6:0	W7:0	W8:0	W9:0	W10:0	W11:0	W12:0	W13:0	W14:0	W15:0	W16:0	W17:0	W18:0	W19:0	W20:0	W21:0	W22:0	W23:0	W24:0	W25:0	W26:0	W27:0	W28:0	W29:0	W30:0	W31:408180	W32:572572
traffic_breakdown_coretomem[CONST_ACC_R] = 224 {8:28,}
traffic_breakdown_coretomem[GLOBAL_ACC_R] = 251072 {8:31384,}
traffic_breakdown_coretomem[GLOBAL_ACC_W] = 2056320 {136:15120,}
traffic_breakdown_coretomem[INST_ACC_R] = 3808 {8:476,}
traffic_breakdown_memtocore[CONST_ACC_R] = 2016 {72:28,}
traffic_breakdown_memtocore[GLOBAL_ACC_R] = 3542464 {40:7560,136:23824,}
traffic_breakdown_memtocore[GLOBAL_ACC_W] = 120960 {8:15120,}
traffic_breakdown_memtocore[INST_ACC_R] = 64736 {136:476,}
maxmrqlatency = 1837 
maxdqlatency = 0 
maxmflatency = 179180 
averagemflatency = 27722 
max_icnt2mem_latency = 178926 
max_icnt2sh_latency = 752367 
mrq_lat_table:15124 	1078 	709 	1188 	1778 	2626 	3943 	6487 	9648 	3726 	335 	0 	0 	0 	0 	0 	0 	0 	0 	0 	0 	0 	0 	0 	0 	0 	0 	0 	0 	0 	0 	0 	
dq_lat_table:0 	0 	0 	0 	0 	0 	0 	0 	0 	0 	0 	0 	0 	0 	0 	0 	0 	0 	0 	0 	0 	0 	0 	0 	0 	0 	0 	0 	0 	0 	0 	0 	
mf_lat_table:0 	0 	0 	0 	0 	0 	0 	22079 	8475 	232 	0 	58 	130 	787 	1425 	5310 	7794 	242 	0 	0 	0 	0 	0 	0 	0 	0 	0 	0 	0 	0 	0 	0 	
icnt2mem_lat_table:0 	0 	22119 	136 	26 	0 	8981 	0 	0 	0 	0 	58 	130 	794 	1418 	5310 	7794 	242 	0 	0 	0 	0 	0 	0 	
icnt2sh_lat_table:0 	0 	25389 	5891 	132 	0 	0 	0 	0 	0 	0 	0 	0 	0 	0 	0 	0 	0 	7084 	8036 	0 	0 	0 	0 	
mf_lat_pw_table:0 	0 	0 	0 	0 	0 	0 	89 	6 	0 	1 	1 	2 	5 	8 	14 	14 	1 	0 	0 	0 	0 	0 	0 	0 	0 	0 	0 	0 	0 	0 	0 	
maximum concurrent accesses to same row:
dram[0]:        32        32        32        32        32        32        32        32        32        32        32        32        32        32        32        32 
dram[1]:        32        32        32        32        32        32        32        32        32        32        32        32        32        32        32        32 
dram[2]:        32        32        32        32        32        32        32        32        32        32        32        32        32        32        32        32 
dram[3]:        32        32        32        32        32        32        32        32        32        32        32        32        32        32        32        32 
dram[4]:        32        32        32        32        32        32        32        32        32        32        32        32        32        32        32        32 
dram[5]:        32        32        32        32        32        32        32        32        32        32        32        32        32        32        32        32 
dram[6]:        32        32        32        32        32        32        32        32        32        32        32        32        32        32        32        32 
dram[7]:        32        32        32        32        32        32        32        32        32        32        32        32        32        32        32        32 
dram[8]:        32        32        32        32        32        32        32        32        32        32        32        32        32        32        32        32 
dram[9]:        32        32        32        32        32        32        32        32        32        32        32        32        32        32        32        32 
dram[10]:        32        32        32        32        32        32        32        32        32        32        32        32        32        32        32        32 
maximum service time to same row:
dram[0]:    123202    123365    124128    124493    124440    124795    123842    124093    127581    127960    126581    126476    122433    122831    123354    123692 
dram[1]:    123228    123245    124233    124742    124362    124815    123852    124164    127603    128130    126638    126617    122549    123046    123410    123869 
dram[2]:    123160    123675    124095    124289    124478    124881    123841    124112    127760    128140    126628    126239    122499    122904    123406    123764 
dram[3]:    123172    123545    124308    124570    124497    124841    123854    124118    127614    128008    126634    126616    122636    123038    123425    123862 
dram[4]:    123115    123582    124121    124205    124476    124892    123827    124148    127759    128166    126638    126654    122484    122965    123370    123839 
dram[5]:    123247    123639    124205    124548    124389    124682    123875    124060    127525    127958    126656    127137    122564    122906    123414    123824 
dram[6]:    123312    123742    124021    124433    124542    124923    123861    124109    127675    128093    126587    127097    122522    122481    123391    123803 
dram[7]:    123283    123739    124187    124559    124386    124518    123768    124033    127545    127887    126619    126611    122529    122435    123400    123801 
dram[8]:    123409    123796    124200    124725    124414    124876    123799    124087    127706    127915    126635    126653    122536    122513    123443    123905 
dram[9]:    123232    123714    124129    124545    124348    124760    123769    124091    127506    127901    126589    126586    122478    122314    123285    123493 
dram[10]:    123334    123763    124311    124712    124494    124921    123774    124085    127650    127636    126630    126642    122537    122939    123403    123524 
average row accesses per activate:
dram[0]: 18.866667 18.799999 18.133333 18.133333 22.727272 22.727272 20.833334 20.833334 18.923077 18.923077 16.133333 16.133333 20.571428 20.571428 19.266666 19.266666 
dram[1]: 18.799999 18.799999 17.733334 15.647058 23.272728 23.272728 20.833334 20.833334 22.363636 22.363636 16.200001 16.200001 22.153847 20.571428 18.062500 19.200001 
dram[2]: 19.200001 19.200001 17.733334 17.733334 23.272728 23.272728 20.833334 20.833334 22.363636 22.363636 16.200001 16.200001 20.571428 20.571428 21.692308 20.142857 
dram[3]: 19.200001 19.200001 15.647058 15.647058 23.272728 23.272728 20.833334 20.833334 18.923077 18.923077 16.200001 14.294118 20.571428 20.571428 20.142857 21.692308 
dram[4]: 19.200001 19.200001 15.647058 15.647058 22.909090 22.909090 21.333334 21.333334 22.363636 18.923077 16.200001 16.200001 20.571428 20.571428 20.214285 20.214285 
dram[5]: 18.799999 18.799999 18.000000 18.000000 22.909090 22.909090 21.333334 21.333334 18.923077 18.923077 16.200001 16.200001 20.571428 20.571428 18.866667 18.866667 
dram[6]: 18.799999 18.799999 15.882353 15.882353 22.909090 22.909090 21.333334 21.333334 22.363636 18.923077 16.200001 16.200001 20.142857 20.142857 19.266666 20.642857 
dram[7]: 18.799999 18.799999 18.000000 18.000000 22.909090 22.909090 21.333334 21.333334 18.615385 18.615385 16.600000 16.600000 20.142857 20.142857 18.062500 18.062500 
dram[8]: 18.799999 18.799999 18.000000 15.882353 22.727272 22.727272 21.333334 21.333334 22.000000 18.615385 16.600000 16.600000 20.142857 20.142857 18.062500 19.266666 
dram[9]: 19.200001 19.200001 18.000000 18.000000 22.727272 22.727272 21.333334 21.333334 18.538462 18.538462 16.600000 16.600000 20.142857 17.625000 16.647058 17.687500 
dram[10]: 19.200001 19.200001 18.000000 18.000000 22.727272 22.727272 21.333334 21.333334 21.909090 18.538462 16.333334 16.333334 22.153847 20.571428 17.687500 18.866667 
average row locality = 46642/2421 = 19.265593
number of total memory accesses made:
dram[0]:         0         0         0         0         0         0         0         0         0         0         0         0         0         0         0         0 
dram[1]:         0         0         0         0         0         0         0         0         0         0         0         0         0         0         0         0 
dram[2]:         0         0         0         0         0         0         0         0         0         0         0         0         0         0         0         0 
dram[3]:         0         0         0         0         0         0         0         0         0         0         0         0         0         0         0         0 
dram[4]:         0         0         0         0         0         0         0         0         0         0         0         0         0         0         0         0 
dram[5]:         0         0         0         0         0         0         0         0         0         0         0         0         0         0         0         0 
dram[6]:         0         0         0         0         0         0         0         0         0         0         0         0         0         0         0         0 
dram[7]:         0         0         0         0         0         0         0         0         0         0         0         0         0         0         0         0 
dram[8]:         0         0         0         0         0         0         0         0         0         0         0         0         0         0         0         0 
dram[9]:         0         0         0         0         0         0         0         0         0         0         0         0         0         0         0         0 
dram[10]:         0         0         0         0         0         0         0         0         0         0         0         0         0         0         0         0 
total accesses: 0
min_bank_accesses = 0!
min_chip_accesses = 0!
number of total read accesses:
dram[0]:       190       189       184       184       173       173       173       173       166       166       162       162       192       192       193       193 
dram[1]:       189       189       181       181       176       176       173       173       166       166       163       163       192       192       193       192 
dram[2]:       192       192       181       181       176       176       173       173       166       166       163       163       192       192       189       189 
dram[3]:       192       192       181       181       176       176       173       173       166       166       163       163       192       192       189       189 
dram[4]:       192       192       181       181       174       174       176       176       166       166       163       163       192       192       190       190 
dram[5]:       189       189       183       183       174       174       176       176       166       166       163       163       192       192       190       190 
dram[6]:       189       189       183       183       174       174       176       176       166       166       163       163       189       189       193       193 
dram[7]:       189       189       183       183       174       174       176       176       164       164       166       166       189       189       193       193 
dram[8]:       189       189       183       183       173       173       176       176       164       164       166       166       189       189       193       193 
dram[9]:       192       192       183       183       173       173       176       176       163       163       166       166       189       189       190       190 
dram[10]:       192       192       183       183       173       173       176       176       163       163       164       164       192       192       190       190 
total reads: 31522
bank skew: 193/162 = 1.19
chip skew: 2868/2864 = 1.00
number of total write accesses:
dram[0]:        93        93        88        88        77        77        77        77        80        80        80        80        96        96        96        96 
dram[1]:        93        93        85        85        80        80        77        77        80        80        80        80        96        96        96        96 
dram[2]:        96        96        85        85        80        80        77        77        80        80        80        80        96        96        93        93 
dram[3]:        96        96        85        85        80        80        77        77        80        80        80        80        96        96        93        93 
dram[4]:        96        96        85        85        78        78        80        80        80        80        80        80        96        96        93        93 
dram[5]:        93        93        87        87        78        78        80        80        80        80        80        80        96        96        93        93 
dram[6]:        93        93        87        87        78        78        80        80        80        80        80        80        93        93        96        96 
dram[7]:        93        93        87        87        78        78        80        80        78        78        83        83        93        93        96        96 
dram[8]:        93        93        87        87        77        77        80        80        78        78        83        83        93        93        96        96 
dram[9]:        96        96        87        87        77        77        80        80        78        78        83        83        93        93        93        93 
dram[10]:        96        96        87        87        77        77        80        80        78        78        81        81        96        96        93        93 
total reads: 15120
bank skew: 96/77 = 1.25
chip skew: 1376/1374 = 1.00
average mf latency per bank:
dram[0]:      27912     26735     29808     25421     29337     21980     24652     23568     33988     30440     41237     30138     32061     25056     24585     23658
dram[1]:      28010     26646     29367     24886     29189     21941     24653     23564     34004     30441     40588     30012     32050     25028     24592     23726
dram[2]:      28251     26931     29347     24875     29188     21948     24744     23657     33999     30462     40570     30005     31643     25042     24522     23575
dram[3]:      28212     26924     29561     25080     29175     21935     24752     23664     34016     30447     40183     29828     31646     25022     24524     23573
dram[4]:      28207     26909     29544     25059     28984     22127     24831     23660     34010     30459     40191     29826     31645     25024     24464     23489
dram[5]:      28326     27013     29796     25193     28985     22118     24839     23677     34009     30450     40340     29973     31640     25031     24462     23495
dram[6]:      28308     26994     29804     25197     28787     21923     24828     23672     33999     30432     40313     29958     31301     25179     24641     23665
dram[7]:      28269     27037     29802     25194     28780     21923     25526     24139     33805     30201     40511     30047     31325     25193     24650     23656
dram[8]:      28262     27024     30255     25201     28978     21899     25532     24137     33795     30189     40515     30055     31119     24987     24639     23672
dram[9]:      28430     27193     30233     25194     28971     21891     25412     24136     33954     30328     40516     30027     31110     24994     24342     23366
dram[10]:      28437     27193     30005     25198     28953     21880     25403     24148     33955     30321     41277     29807     31268     24852     24351     23361
maximum mf latency per bank:
dram[0]:     122288    121939    121648    121288    121108    120769    123042    122624    123829    123570    179153    122591    178938    122428    122306    122065
dram[1]:     122364    121899    121539    121140    121068    120677    123127    122743    123880    123464    179174    123188    178966    122750    121959    121582
dram[2]:     122395    122249    121319    120867    120965    120624    123040    122735    123778    123272    179164    122800    178937    122168    122339    121993
dram[3]:     122298    121773    121572    121222    120991    120655    123033    122619    123901    123496    179174    123017    178982    122326    122079    121800
dram[4]:     122438    122037    121340    120904    120741    120432    123138    122746    123982    123620    179157    122674    178936    122401    122226    121924
dram[5]:     122144    121781    121651    121219    120599    119916    123084    122686    123925    123651    179176    122934    178992    122391    122326    122109
dram[6]:     122057    121521    121396    121032    120766    120451    123177    122720    123977    123595    179169    122560    178938    177622    122133    121799
dram[7]:     122245    121882    121842    121478    120504    120027    123093    122652    123925    123584    179174    123179    178985    178426    122404    122037
dram[8]:     122617    122009    121491    121106    120977    120612    123182    122783    123850    123477    179180    123055    178966    122632    122159    121826
dram[9]:     122437    122242    121854    121446    120723    120245    123155    122694    123979    123545    179148    122909    178987    122253    122271    121899
dram[10]:     122133    121830    121657    121352    121201    120845    123129    122726    123960    123493    179173    122658    178973    122645    121978    121709
Memory Partition 0: 
Cache L2_bank_000:
MSHR contents

Cache L2_bank_001:
MSHR contents

In Dram Latency Queue (total = 0): 
DRAM[0]: 16 bks, busW=4 BL=8 CL=12, tRRD=2 tCCD=6, tRCD=12 tRAS=28 tRP=12 tRC=40
n_cmd=984536 n_nop=967154 n_act=221 n_pre=205 n_req=4239 n_rd=11460 n_write=5496 bw_util=0.03444
n_activity=49207 dram_eff=0.6892
bk0: 760a 969308i bk1: 756a 969349i bk2: 736a 969295i bk3: 736a 969465i bk4: 692a 972068i bk5: 692a 971703i bk6: 692a 971202i bk7: 692a 970787i bk8: 664a 969857i bk9: 664a 969501i bk10: 648a 969575i bk11: 648a 969949i bk12: 768a 968245i bk13: 768a 968270i bk14: 772a 968570i bk15: 772a 969001i 
dram_util_bins: 0 0 0 0 0 0 0 0 0 0
dram_eff_bins: 0 0 0 0 0 0 0 0 0 0
mrqq: max=64 avg=1.39809
Memory Partition 1: 
Cache L2_bank_002:
MSHR contents

Cache L2_bank_003:
MSHR contents

In Dram Latency Queue (total = 0): 
DRAM[1]: 16 bks, busW=4 BL=8 CL=12, tRRD=2 tCCD=6, tRCD=12 tRAS=28 tRP=12 tRC=40
n_cmd=984536 n_nop=967160 n_act=218 n_pre=202 n_req=4239 n_rd=11460 n_write=5496 bw_util=0.03444
n_activity=49367 dram_eff=0.6869
bk0: 756a 968567i bk1: 756a 968933i bk2: 724a 970268i bk3: 724a 969732i bk4: 704a 972114i bk5: 704a 971633i bk6: 692a 970904i bk7: 692a 970652i bk8: 664a 969398i bk9: 664a 969196i bk10: 652a 969535i bk11: 652a 969815i bk12: 768a 968434i bk13: 768a 968262i bk14: 772a 968675i bk15: 768a 969076i 
dram_util_bins: 0 0 0 0 0 0 0 0 0 0
dram_eff_bins: 0 0 0 0 0 0 0 0 0 0
mrqq: max=64 avg=1.39059
Memory Partition 2: 
Cache L2_bank_004:
MSHR contents

Cache L2_bank_005:
MSHR contents
MSHR: tag=0xc0391180, atomic=0 1 entries : 0x7f9a944c4be0 :  mf: uid=643442, sid06:w00, part=2, addr=0xc0391180, load , size=128, unknown  status = IN_PARTITION_DRAM (752365), 

In Dram Latency Queue (total = 0): 
DRAM[2]: 16 bks, busW=4 BL=8 CL=12, tRRD=2 tCCD=6, tRCD=12 tRAS=28 tRP=12 tRC=40
n_cmd=984536 n_nop=967174 n_act=213 n_pre=197 n_req=4238 n_rd=11456 n_write=5496 bw_util=0.03444
n_activity=49059 dram_eff=0.6911
bk0: 768a 969052i bk1: 768a 968917i bk2: 724a 970808i bk3: 724a 970366i bk4: 704a 971396i bk5: 704a 971307i bk6: 692a 971161i bk7: 692a 970914i bk8: 664a 969267i bk9: 664a 969182i bk10: 652a 970402i bk11: 652a 970366i bk12: 768a 968100i bk13: 768a 968428i bk14: 756a 969554i bk15: 756a 969959i 
dram_util_bins: 0 0 0 0 0 0 0 0 0 0
dram_eff_bins: 0 0 0 0 0 0 0 0 0 0
mrqq: max=64 avg=1.39691
Memory Partition 3: 
Cache L2_bank_006:
MSHR contents

Cache L2_bank_007:
MSHR contents

In Dram Latency Queue (total = 0): 
DRAM[3]: 16 bks, busW=4 BL=8 CL=12, tRRD=2 tCCD=6, tRCD=12 tRAS=28 tRP=12 tRC=40
n_cmd=984536 n_nop=967154 n_act=223 n_pre=207 n_req=4238 n_rd=11456 n_write=5496 bw_util=0.03444
n_activity=48974 dram_eff=0.6923
bk0: 768a 969375i bk1: 768a 969263i bk2: 724a 969943i bk3: 724a 969786i bk4: 704a 971624i bk5: 704a 971429i bk6: 692a 970902i bk7: 692a 971196i bk8: 664a 969319i bk9: 664a 969244i bk10: 652a 970289i bk11: 652a 970007i bk12: 768a 967910i bk13: 768a 968735i bk14: 756a 969507i bk15: 756a 969667i 
dram_util_bins: 0 0 0 0 0 0 0 0 0 0
dram_eff_bins: 0 0 0 0 0 0 0 0 0 0
mrqq: max=64 avg=1.38945
Memory Partition 4: 
Cache L2_bank_008:
MSHR contents

Cache L2_bank_009:
MSHR contents

In Dram Latency Queue (total = 0): 
DRAM[4]: 16 bks, busW=4 BL=8 CL=12, tRRD=2 tCCD=6, tRCD=12 tRAS=28 tRP=12 tRC=40
n_cmd=984536 n_nop=967136 n_act=220 n_pre=204 n_req=4244 n_rd=11472 n_write=5504 bw_util=0.03449
n_activity=48975 dram_eff=0.6933
bk0: 768a 968951i bk1: 768a 969527i bk2: 724a 970505i bk3: 724a 970917i bk4: 696a 971950i bk5: 696a 971345i bk6: 704a 970800i bk7: 704a 970625i bk8: 664a 969277i bk9: 664a 969010i bk10: 652a 969934i bk11: 652a 969887i bk12: 768a 968018i bk13: 768a 968282i bk14: 760a 969281i bk15: 760a 969411i 
dram_util_bins: 0 0 0 0 0 0 0 0 0 0
dram_eff_bins: 0 0 0 0 0 0 0 0 0 0
mrqq: max=64 avg=1.3945
Memory Partition 5: 
Cache L2_bank_010:
MSHR contents

Cache L2_bank_011:
MSHR contents

In Dram Latency Queue (total = 0): 
DRAM[5]: 16 bks, busW=4 BL=8 CL=12, tRRD=2 tCCD=6, tRCD=12 tRAS=28 tRP=12 tRC=40
n_cmd=984536 n_nop=967152 n_act=220 n_pre=204 n_req=4240 n_rd=11464 n_write=5496 bw_util=0.03445
n_activity=49117 dram_eff=0.6906
bk0: 756a 969327i bk1: 756a 969304i bk2: 732a 969833i bk3: 732a 969613i bk4: 696a 971887i bk5: 696a 971655i bk6: 704a 970845i bk7: 704a 970472i bk8: 664a 969153i bk9: 664a 969034i bk10: 652a 969795i bk11: 652a 969758i bk12: 768a 968256i bk13: 768a 968471i bk14: 760a 969246i bk15: 760a 969658i 
dram_util_bins: 0 0 0 0 0 0 0 0 0 0
dram_eff_bins: 0 0 0 0 0 0 0 0 0 0
mrqq: max=64 avg=1.39563
Memory Partition 6: 
Cache L2_bank_012:
MSHR contents

Cache L2_bank_013:
MSHR contents

In Dram Latency Queue (total = 0): 
DRAM[6]: 16 bks, busW=4 BL=8 CL=12, tRRD=2 tCCD=6, tRCD=12 tRAS=28 tRP=12 tRC=40
n_cmd=984536 n_nop=967150 n_act=221 n_pre=205 n_req=4240 n_rd=11464 n_write=5496 bw_util=0.03445
n_activity=49075 dram_eff=0.6912
bk0: 756a 969562i bk1: 756a 968753i bk2: 732a 969460i bk3: 732a 969405i bk4: 696a 971597i bk5: 696a 971618i bk6: 704a 970491i bk7: 704a 969888i bk8: 664a 968880i bk9: 664a 968826i bk10: 652a 969349i bk11: 652a 969253i bk12: 756a 968464i bk13: 756a 968707i bk14: 772a 968931i bk15: 772a 968929i 
dram_util_bins: 0 0 0 0 0 0 0 0 0 0
dram_eff_bins: 0 0 0 0 0 0 0 0 0 0
mrqq: max=64 avg=1.39621
Memory Partition 7: 
Cache L2_bank_014:
MSHR contents

Cache L2_bank_015:
MSHR contents
MSHR: tag=0xc038f580, atomic=0 1 entries : 0x7f9a8b193ac0 :  mf: uid=643325, sid06:w10, part=7, addr=0xc038f580, load , size=128, unknown  status = IN_PARTITION_DRAM (752367), 

In Dram Latency Queue (total = 0): 
DRAM[7]: 16 bks, busW=4 BL=8 CL=12, tRRD=2 tCCD=6, tRCD=12 tRAS=28 tRP=12 tRC=40
n_cmd=984536 n_nop=967133 n_act=222 n_pre=206 n_req=4244 n_rd=11471 n_write=5504 bw_util=0.03448
n_activity=49180 dram_eff=0.6903
bk0: 756a 969031i bk1: 755a 968980i bk2: 732a 969564i bk3: 732a 969721i bk4: 696a 972531i bk5: 696a 971709i bk6: 704a 970780i bk7: 704a 970192i bk8: 656a 970330i bk9: 656a 969373i bk10: 664a 969022i bk11: 664a 969149i bk12: 756a 968346i bk13: 756a 968553i bk14: 772a 968278i bk15: 772a 969352i 
dram_util_bins: 0 0 0 0 0 0 0 0 0 0
dram_eff_bins: 0 0 0 0 0 0 0 0 0 0
mrqq: max=64 avg=1.3977
Memory Partition 8: 
Cache L2_bank_016:
MSHR contents

Cache L2_bank_017:
MSHR contents
MSHR: tag=0xc0391780, atomic=0 1 entries : 0x7f9a89b75c40 :  mf: uid=643379, sid06:w03, part=8, addr=0xc0391780, load , size=128, unknown  status = IN_PARTITION_DRAM (752361), 

In Dram Latency Queue (total = 0): 
DRAM[8]: 16 bks, busW=4 BL=8 CL=12, tRRD=2 tCCD=6, tRCD=12 tRAS=28 tRP=12 tRC=40
n_cmd=984536 n_nop=967150 n_act=221 n_pre=205 n_req=4240 n_rd=11464 n_write=5496 bw_util=0.03445
n_activity=49091 dram_eff=0.691
bk0: 756a 969099i bk1: 756a 968902i bk2: 732a 969517i bk3: 732a 969544i bk4: 692a 972276i bk5: 692a 971341i bk6: 704a 970145i bk7: 704a 970068i bk8: 656a 969964i bk9: 656a 969909i bk10: 664a 969415i bk11: 664a 968899i bk12: 756a 968266i bk13: 756a 968381i bk14: 772a 968735i bk15: 772a 969002i 
dram_util_bins: 0 0 0 0 0 0 0 0 0 0
dram_eff_bins: 0 0 0 0 0 0 0 0 0 0
mrqq: max=64 avg=1.39726
Memory Partition 9: 
Cache L2_bank_018:
MSHR contents

Cache L2_bank_019:
MSHR contents

In Dram Latency Queue (total = 0): 
DRAM[9]: 16 bks, busW=4 BL=8 CL=12, tRRD=2 tCCD=6, tRCD=12 tRAS=28 tRP=12 tRC=40
n_cmd=984536 n_nop=967150 n_act=225 n_pre=209 n_req=4238 n_rd=11456 n_write=5496 bw_util=0.03444
n_activity=49293 dram_eff=0.6878
bk0: 768a 968867i bk1: 768a 968986i bk2: 732a 969445i bk3: 732a 969526i bk4: 692a 971782i bk5: 692a 971764i bk6: 704a 970734i bk7: 704a 970416i bk8: 652a 970088i bk9: 652a 969753i bk10: 664a 969180i bk11: 664a 969643i bk12: 756a 968604i bk13: 756a 968899i bk14: 760a 969275i bk15: 760a 969142i 
dram_util_bins: 0 0 0 0 0 0 0 0 0 0
dram_eff_bins: 0 0 0 0 0 0 0 0 0 0
mrqq: max=64 avg=1.39772
Memory Partition 10: 
Cache L2_bank_020:
MSHR contents

Cache L2_bank_021:
MSHR contents

In Dram Latency Queue (total = 0): 
DRAM[10]: 16 bks, busW=4 BL=8 CL=12, tRRD=2 tCCD=6, tRCD=12 tRAS=28 tRP=12 tRC=40
n_cmd=984536 n_nop=967148 n_act=218 n_pre=202 n_req=4242 n_rd=11464 n_write=5504 bw_util=0.03447
n_activity=49146 dram_eff=0.6905
bk0: 768a 968269i bk1: 768a 968402i bk2: 732a 969578i bk3: 732a 969750i bk4: 692a 971700i bk5: 692a 971564i bk6: 704a 970481i bk7: 704a 970043i bk8: 652a 969510i bk9: 652a 969826i bk10: 656a 969793i bk11: 656a 969808i bk12: 768a 968197i bk13: 768a 967808i bk14: 760a 969170i bk15: 760a 969579i 
dram_util_bins: 0 0 0 0 0 0 0 0 0 0
dram_eff_bins: 0 0 0 0 0 0 0 0 0 0
mrqq: max=64 avg=1.39602

========= L2 cache stats =========
L2_cache_bank[0]: Access = 2169, Miss = 1433, Miss_rate = 0.661, Pending_hits = 33, Reservation_fails = 0
L2_cache_bank[1]: Access = 2140, Miss = 1432, Miss_rate = 0.669, Pending_hits = 109, Reservation_fails = 0
L2_cache_bank[2]: Access = 2141, Miss = 1433, Miss_rate = 0.669, Pending_hits = 3, Reservation_fails = 0
L2_cache_bank[3]: Access = 2114, Miss = 1432, Miss_rate = 0.677, Pending_hits = 112, Reservation_fails = 0
L2_cache_bank[4]: Access = 2115, Miss = 1432, Miss_rate = 0.677, Pending_hits = 2, Reservation_fails = 0
L2_cache_bank[5]: Access = 2115, Miss = 1432, Miss_rate = 0.677, Pending_hits = 113, Reservation_fails = 0
L2_cache_bank[6]: Access = 2113, Miss = 1432, Miss_rate = 0.678, Pending_hits = 2, Reservation_fails = 0
L2_cache_bank[7]: Access = 2112, Miss = 1432, Miss_rate = 0.678, Pending_hits = 109, Reservation_fails = 0
L2_cache_bank[8]: Access = 2142, Miss = 1434, Miss_rate = 0.669, Pending_hits = 27, Reservation_fails = 0
L2_cache_bank[9]: Access = 2143, Miss = 1434, Miss_rate = 0.669, Pending_hits = 137, Reservation_fails = 0
L2_cache_bank[10]: Access = 2142, Miss = 1433, Miss_rate = 0.669, Pending_hits = 29, Reservation_fails = 0
L2_cache_bank[11]: Access = 2141, Miss = 1433, Miss_rate = 0.669, Pending_hits = 134, Reservation_fails = 0
L2_cache_bank[12]: Access = 2140, Miss = 1433, Miss_rate = 0.670, Pending_hits = 30, Reservation_fails = 0
L2_cache_bank[13]: Access = 2141, Miss = 1433, Miss_rate = 0.669, Pending_hits = 141, Reservation_fails = 0
L2_cache_bank[14]: Access = 2144, Miss = 1434, Miss_rate = 0.669, Pending_hits = 30, Reservation_fails = 0
L2_cache_bank[15]: Access = 2144, Miss = 1434, Miss_rate = 0.669, Pending_hits = 136, Reservation_fails = 0
L2_cache_bank[16]: Access = 2142, Miss = 1433, Miss_rate = 0.669, Pending_hits = 32, Reservation_fails = 0
L2_cache_bank[17]: Access = 2141, Miss = 1433, Miss_rate = 0.669, Pending_hits = 136, Reservation_fails = 0
L2_cache_bank[18]: Access = 2140, Miss = 1432, Miss_rate = 0.669, Pending_hits = 6, Reservation_fails = 0
L2_cache_bank[19]: Access = 2141, Miss = 1432, Miss_rate = 0.669, Pending_hits = 115, Reservation_fails = 0
L2_cache_bank[20]: Access = 2144, Miss = 1433, Miss_rate = 0.668, Pending_hits = 2, Reservation_fails = 0
L2_cache_bank[21]: Access = 2144, Miss = 1433, Miss_rate = 0.668, Pending_hits = 117, Reservation_fails = 0
L2_total_cache_accesses = 47008
L2_total_cache_misses = 31522
L2_total_cache_miss_rate = 0.6706
L2_total_cache_pending_hits = 1555
L2_total_cache_reservation_fails = 0
L2_total_cache_breakdown:
	L2_cache_stats_breakdown[GLOBAL_ACC_R][HIT] = 13755
	L2_cache_stats_breakdown[GLOBAL_ACC_R][HIT_RESERVED] = 1245
	L2_cache_stats_breakdown[GLOBAL_ACC_R][MISS] = 16384
	L2_cache_stats_breakdown[GLOBAL_ACC_R][RESERVATION_FAIL] = 0
	L2_cache_stats_breakdown[LOCAL_ACC_R][HIT] = 0
	L2_cache_stats_breakdown[LOCAL_ACC_R][HIT_RESERVED] = 0
	L2_cache_stats_breakdown[LOCAL_ACC_R][MISS] = 0
	L2_cache_stats_breakdown[LOCAL_ACC_R][RESERVATION_FAIL] = 0
	L2_cache_stats_breakdown[CONST_ACC_R][HIT] = 0
	L2_cache_stats_breakdown[CONST_ACC_R][HIT_RESERVED] = 27
	L2_cache_stats_breakdown[CONST_ACC_R][MISS] = 1
	L2_cache_stats_breakdown[CONST_ACC_R][RESERVATION_FAIL] = 0
	L2_cache_stats_breakdown[TEXTURE_ACC_R][HIT] = 0
	L2_cache_stats_breakdown[TEXTURE_ACC_R][HIT_RESERVED] = 0
	L2_cache_stats_breakdown[TEXTURE_ACC_R][MISS] = 0
	L2_cache_stats_breakdown[TEXTURE_ACC_R][RESERVATION_FAIL] = 0
	L2_cache_stats_breakdown[GLOBAL_ACC_W][HIT] = 0
	L2_cache_stats_breakdown[GLOBAL_ACC_W][HIT_RESERVED] = 0
	L2_cache_stats_breakdown[GLOBAL_ACC_W][MISS] = 15120
	L2_cache_stats_breakdown[GLOBAL_ACC_W][RESERVATION_FAIL] = 0
	L2_cache_stats_breakdown[LOCAL_ACC_W][HIT] = 0
	L2_cache_stats_breakdown[LOCAL_ACC_W][HIT_RESERVED] = 0
	L2_cache_stats_breakdown[LOCAL_ACC_W][MISS] = 0
	L2_cache_stats_breakdown[LOCAL_ACC_W][RESERVATION_FAIL] = 0
	L2_cache_stats_breakdown[L1_WRBK_ACC][HIT] = 0
	L2_cache_stats_breakdown[L1_WRBK_ACC][HIT_RESERVED] = 0
	L2_cache_stats_breakdown[L1_WRBK_ACC][MISS] = 0
	L2_cache_stats_breakdown[L1_WRBK_ACC][RESERVATION_FAIL] = 0
	L2_cache_stats_breakdown[L2_WRBK_ACC][HIT] = 0
	L2_cache_stats_breakdown[L2_WRBK_ACC][HIT_RESERVED] = 0
	L2_cache_stats_breakdown[L2_WRBK_ACC][MISS] = 0
	L2_cache_stats_breakdown[L2_WRBK_ACC][RESERVATION_FAIL] = 0
	L2_cache_stats_breakdown[INST_ACC_R][HIT] = 176
	L2_cache_stats_breakdown[INST_ACC_R][HIT_RESERVED] = 283
	L2_cache_stats_breakdown[INST_ACC_R][MISS] = 17
	L2_cache_stats_breakdown[INST_ACC_R][RESERVATION_FAIL] = 0
	L2_cache_stats_breakdown[L1_WR_ALLOC_R][HIT] = 0
	L2_cache_stats_breakdown[L1_WR_ALLOC_R][HIT_RESERVED] = 0
	L2_cache_stats_breakdown[L1_WR_ALLOC_R][MISS] = 0
	L2_cache_stats_breakdown[L1_WR_ALLOC_R][RESERVATION_FAIL] = 0
	L2_cache_stats_breakdown[L2_WR_ALLOC_R][HIT] = 0
	L2_cache_stats_breakdown[L2_WR_ALLOC_R][HIT_RESERVED] = 0
	L2_cache_stats_breakdown[L2_WR_ALLOC_R][MISS] = 0
	L2_cache_stats_breakdown[L2_WR_ALLOC_R][RESERVATION_FAIL] = 0
	L2_cache_stats_breakdown[GLOBAL_ACC_R][TOTAL_ACCESS] = 31384
	L2_cache_stats_breakdown[CONST_ACC_R][TOTAL_ACCESS] = 28
	L2_cache_stats_breakdown[GLOBAL_ACC_W][TOTAL_ACCESS] = 15120
	L2_cache_stats_breakdown[INST_ACC_R][TOTAL_ACCESS] = 476
L2_cache_data_port_util = 0.003
L2_cache_fill_port_util = 0.011

icnt_total_pkts_mem_to_simt=151824
icnt_total_pkts_simt_to_mem=107488
LD_mem_lat_dist  0 0 0 0 0 0 0 0 0 0 0 0 0 0 0 0 0 0 0 0 0 0 0 0 0 0 0
ST_mem_lat_dist  0 0 0 0 0 0 0 0 0 0 0 0 0 0 0 0 0 0 0 0 0 0 0 0 0 0 0
----------------------------Interconnect-DETAILS--------------------------------
Class 0:
Packet latency average = 22.4636
	minimum = 6
	maximum = 1481
Network latency average = 18.2148
	minimum = 6
	maximum = 1418
Slowest packet = 41257
Flit latency average = 21.1149
	minimum = 6
	maximum = 1414
Slowest flit = 224377
Fragmentation average = 1.1027
	minimum = 0
	maximum = 1393
Injected packet rate average = 0.00177316
	minimum = 0.00140509 (at node 0)
	maximum = 0.00209914 (at node 3)
Accepted packet rate average = 0.00177316
	minimum = 0.00140509 (at node 0)
	maximum = 0.00209914 (at node 3)
Injected flit rate average = 0.00489068
	minimum = 0.00321566 (at node 0)
	maximum = 0.00660956 (at node 28)
Accepted flit rate average= 0.00489068
	minimum = 0.00453399 (at node 0)
	maximum = 0.0067595 (at node 3)
Injected packet length average = 2.75817
Accepted packet length average = 2.75817
Total in-flight flits = 0 (0 measured)
====== Overall Traffic Statistics ======
====== Traffic class 0 ======
Packet latency average = 22.4636 (1 samples)
	minimum = 6 (1 samples)
	maximum = 1481 (1 samples)
Network latency average = 18.2148 (1 samples)
	minimum = 6 (1 samples)
	maximum = 1418 (1 samples)
Flit latency average = 21.1149 (1 samples)
	minimum = 6 (1 samples)
	maximum = 1414 (1 samples)
Fragmentation average = 1.1027 (1 samples)
	minimum = 0 (1 samples)
	maximum = 1393 (1 samples)
Injected packet rate average = 0.00177316 (1 samples)
	minimum = 0.00140509 (1 samples)
	maximum = 0.00209914 (1 samples)
Accepted packet rate average = 0.00177316 (1 samples)
	minimum = 0.00140509 (1 samples)
	maximum = 0.00209914 (1 samples)
Injected flit rate average = 0.00489068 (1 samples)
	minimum = 0.00321566 (1 samples)
	maximum = 0.00660956 (1 samples)
Accepted flit rate average = 0.00489068 (1 samples)
	minimum = 0.00453399 (1 samples)
	maximum = 0.0067595 (1 samples)
Injected packet size average = 2.75817 (1 samples)
Accepted packet size average = 2.75817 (1 samples)
Hops average = 1 (1 samples)
----------------------------END-of-Interconnect-DETAILS-------------------------


gpgpu_simulation_time = 0 days, 0 hrs, 17 min, 47 sec (1067 sec)
gpgpu_simulation_rate = 27037 (inst/sec)
gpgpu_simulation_rate = 705 (cycle/sec)

GPGPU-Sim PTX: cudaLaunch for 0x0x401496 (mode=performance simulation) on stream 0
GPGPU-Sim PTX: pushing kernel '_Z24block2D_hybrid_coarsen_xffPfS_iii' to stream 0, gridDim= (2,32,1) blockDim = (32,4,1) 
GPGPU-Sim uArch: Shader 9 bind to kernel 2 '_Z24block2D_hybrid_coarsen_xffPfS_iii'
GPGPU-Sim uArch: Shader 10 bind to kernel 2 '_Z24block2D_hybrid_coarsen_xffPfS_iii'
GPGPU-Sim uArch: Shader 11 bind to kernel 2 '_Z24block2D_hybrid_coarsen_xffPfS_iii'
GPGPU-Sim uArch: Shader 12 bind to kernel 2 '_Z24block2D_hybrid_coarsen_xffPfS_iii'
GPGPU-Sim uArch: Shader 13 bind to kernel 2 '_Z24block2D_hybrid_coarsen_xffPfS_iii'
GPGPU-Sim uArch: Shader 14 bind to kernel 2 '_Z24block2D_hybrid_coarsen_xffPfS_iii'
GPGPU-Sim uArch: Shader 15 bind to kernel 2 '_Z24block2D_hybrid_coarsen_xffPfS_iii'
GPGPU-Sim uArch: Shader 16 bind to kernel 2 '_Z24block2D_hybrid_coarsen_xffPfS_iii'
GPGPU-Sim uArch: Shader 17 bind to kernel 2 '_Z24block2D_hybrid_coarsen_xffPfS_iii'
GPGPU-Sim uArch: Shader 18 bind to kernel 2 '_Z24block2D_hybrid_coarsen_xffPfS_iii'
GPGPU-Sim uArch: Shader 19 bind to kernel 2 '_Z24block2D_hybrid_coarsen_xffPfS_iii'
GPGPU-Sim uArch: Shader 20 bind to kernel 2 '_Z24block2D_hybrid_coarsen_xffPfS_iii'
GPGPU-Sim uArch: Shader 21 bind to kernel 2 '_Z24block2D_hybrid_coarsen_xffPfS_iii'
GPGPU-Sim uArch: Shader 22 bind to kernel 2 '_Z24block2D_hybrid_coarsen_xffPfS_iii'
GPGPU-Sim uArch: Shader 23 bind to kernel 2 '_Z24block2D_hybrid_coarsen_xffPfS_iii'
GPGPU-Sim uArch: Shader 24 bind to kernel 2 '_Z24block2D_hybrid_coarsen_xffPfS_iii'
GPGPU-Sim uArch: Shader 25 bind to kernel 2 '_Z24block2D_hybrid_coarsen_xffPfS_iii'
GPGPU-Sim uArch: Shader 26 bind to kernel 2 '_Z24block2D_hybrid_coarsen_xffPfS_iii'
GPGPU-Sim uArch: Shader 27 bind to kernel 2 '_Z24block2D_hybrid_coarsen_xffPfS_iii'
GPGPU-Sim uArch: Shader 0 bind to kernel 2 '_Z24block2D_hybrid_coarsen_xffPfS_iii'
GPGPU-Sim uArch: Shader 1 bind to kernel 2 '_Z24block2D_hybrid_coarsen_xffPfS_iii'
GPGPU-Sim uArch: Shader 2 bind to kernel 2 '_Z24block2D_hybrid_coarsen_xffPfS_iii'
GPGPU-Sim uArch: Shader 3 bind to kernel 2 '_Z24block2D_hybrid_coarsen_xffPfS_iii'
GPGPU-Sim uArch: Shader 4 bind to kernel 2 '_Z24block2D_hybrid_coarsen_xffPfS_iii'
GPGPU-Sim uArch: Shader 5 bind to kernel 2 '_Z24block2D_hybrid_coarsen_xffPfS_iii'
GPGPU-Sim uArch: Shader 6 bind to kernel 2 '_Z24block2D_hybrid_coarsen_xffPfS_iii'
GPGPU-Sim uArch: Shader 7 bind to kernel 2 '_Z24block2D_hybrid_coarsen_xffPfS_iii'
GPGPU-Sim uArch: Shader 8 bind to kernel 2 '_Z24block2D_hybrid_coarsen_xffPfS_iii'
Destroy streams for kernel 2: size 0
kernel_name = _Z24block2D_hybrid_coarsen_xffPfS_iii 
kernel_launch_uid = 2 
gpu_sim_cycle = 41580
gpu_sim_insn = 28848876
gpu_ipc =     693.8162
gpu_tot_sim_cycle = 1016098
gpu_tot_sim_insn = 57697752
gpu_tot_ipc =      56.7836
gpu_tot_issued_cta = 128
max_total_param_size = 0
gpu_stall_dramfull = 96193
gpu_stall_icnt2sh    = 2565
partiton_reqs_in_parallel = 914760
partiton_reqs_in_parallel_total    = 11568603
partiton_level_parallism =      22.0000
partiton_level_parallism_total  =      12.2856
partiton_reqs_in_parallel_util = 914760
partiton_reqs_in_parallel_util_total    = 11568603
gpu_sim_cycle_parition_util = 41580
gpu_tot_sim_cycle_parition_util    = 529207
partiton_level_parallism_util =      22.0000
partiton_level_parallism_util_total  =      21.8704
partiton_replys_in_parallel = 46504
partiton_replys_in_parallel_total    = 47008
L2_BW  =     106.0085 GB/Sec
L2_BW_total  =       8.7230 GB/Sec
gpu_total_sim_rate=47370

========= Core cache stats =========
L1I_cache:
	L1I_total_cache_accesses = 1158456
	L1I_total_cache_misses = 3182
	L1I_total_cache_miss_rate = 0.0027
	L1I_total_cache_pending_hits = 0
	L1I_total_cache_reservation_fails = 0
L1D_cache:
	L1D_cache_core[0]: Access = 0, Miss = 0, Miss_rate = -nan, Pending_hits = 0, Reservation_fails = 0
	L1D_cache_core[1]: Access = 0, Miss = 0, Miss_rate = -nan, Pending_hits = 0, Reservation_fails = 0
	L1D_cache_core[2]: Access = 0, Miss = 0, Miss_rate = -nan, Pending_hits = 0, Reservation_fails = 0
	L1D_cache_core[3]: Access = 0, Miss = 0, Miss_rate = -nan, Pending_hits = 0, Reservation_fails = 0
	L1D_cache_core[4]: Access = 0, Miss = 0, Miss_rate = -nan, Pending_hits = 0, Reservation_fails = 0
	L1D_cache_core[5]: Access = 0, Miss = 0, Miss_rate = -nan, Pending_hits = 0, Reservation_fails = 0
	L1D_cache_core[6]: Access = 0, Miss = 0, Miss_rate = -nan, Pending_hits = 0, Reservation_fails = 0
	L1D_cache_core[7]: Access = 0, Miss = 0, Miss_rate = -nan, Pending_hits = 0, Reservation_fails = 0
	L1D_cache_core[8]: Access = 0, Miss = 0, Miss_rate = -nan, Pending_hits = 0, Reservation_fails = 0
	L1D_cache_core[9]: Access = 0, Miss = 0, Miss_rate = -nan, Pending_hits = 0, Reservation_fails = 0
	L1D_cache_core[10]: Access = 0, Miss = 0, Miss_rate = -nan, Pending_hits = 0, Reservation_fails = 0
	L1D_cache_core[11]: Access = 0, Miss = 0, Miss_rate = -nan, Pending_hits = 0, Reservation_fails = 0
	L1D_cache_core[12]: Access = 0, Miss = 0, Miss_rate = -nan, Pending_hits = 0, Reservation_fails = 0
	L1D_cache_core[13]: Access = 0, Miss = 0, Miss_rate = -nan, Pending_hits = 0, Reservation_fails = 0
	L1D_cache_core[14]: Access = 0, Miss = 0, Miss_rate = -nan, Pending_hits = 0, Reservation_fails = 0
	L1D_cache_core[15]: Access = 0, Miss = 0, Miss_rate = -nan, Pending_hits = 0, Reservation_fails = 0
	L1D_cache_core[16]: Access = 0, Miss = 0, Miss_rate = -nan, Pending_hits = 0, Reservation_fails = 0
	L1D_cache_core[17]: Access = 0, Miss = 0, Miss_rate = -nan, Pending_hits = 0, Reservation_fails = 0
	L1D_cache_core[18]: Access = 0, Miss = 0, Miss_rate = -nan, Pending_hits = 0, Reservation_fails = 0
	L1D_cache_core[19]: Access = 0, Miss = 0, Miss_rate = -nan, Pending_hits = 0, Reservation_fails = 0
	L1D_cache_core[20]: Access = 0, Miss = 0, Miss_rate = -nan, Pending_hits = 0, Reservation_fails = 0
	L1D_cache_core[21]: Access = 0, Miss = 0, Miss_rate = -nan, Pending_hits = 0, Reservation_fails = 0
	L1D_cache_core[22]: Access = 0, Miss = 0, Miss_rate = -nan, Pending_hits = 0, Reservation_fails = 0
	L1D_cache_core[23]: Access = 0, Miss = 0, Miss_rate = -nan, Pending_hits = 0, Reservation_fails = 0
	L1D_cache_core[24]: Access = 0, Miss = 0, Miss_rate = -nan, Pending_hits = 0, Reservation_fails = 0
	L1D_cache_core[25]: Access = 0, Miss = 0, Miss_rate = -nan, Pending_hits = 0, Reservation_fails = 0
	L1D_cache_core[26]: Access = 0, Miss = 0, Miss_rate = -nan, Pending_hits = 0, Reservation_fails = 0
	L1D_cache_core[27]: Access = 0, Miss = 0, Miss_rate = -nan, Pending_hits = 0, Reservation_fails = 0
	L1D_total_cache_accesses = 0
	L1D_total_cache_misses = 0
	L1D_total_cache_pending_hits = 0
	L1D_total_cache_reservation_fails = 0
	L1D_cache_data_port_util = 0.000
	L1D_cache_fill_port_util = 0.000
[...]
	L2_cache_stats_breakdown[L2_WR_ALLOC_R][HIT] = 0
	L2_cache_stats_breakdown[L2_WR_ALLOC_R][HIT_RESERVED] = 0
	L2_cache_stats_breakdown[L2_WR_ALLOC_R][MISS] = 0
	L2_cache_stats_breakdown[L2_WR_ALLOC_R][RESERVATION_FAIL] = 0
	L2_cache_stats_breakdown[GLOBAL_ACC_R][TOTAL_ACCESS] = 1255360
	L2_cache_stats_breakdown[CONST_ACC_R][TOTAL_ACCESS] = 28
	L2_cache_stats_breakdown[GLOBAL_ACC_W][TOTAL_ACCESS] = 604800
	L2_cache_stats_breakdown[INST_ACC_R][TOTAL_ACCESS] = 476
L2_cache_data_port_util = 0.032
L2_cache_fill_port_util = 0.111

icnt_total_pkts_mem_to_simt=5976864
icnt_total_pkts_simt_to_mem=4279864
LD_mem_lat_dist  0 0 0 0 0 0 0 0 0 0 0 0 0 0 0 0 0 0 0 0 0 0 0 0 0 0 0
ST_mem_lat_dist  0 0 0 0 0 0 0 0 0 0 0 0 0 0 0 0 0 0 0 0 0 0 0 0 0 0 0
----------------------------Interconnect-DETAILS--------------------------------
Class 0:
Packet latency average = 8.5401
	minimum = 6
	maximum = 42
Network latency average = 8.41298
	minimum = 6
	maximum = 42
Slowest packet = 3629124
Flit latency average = 6.88767
	minimum = 6
	maximum = 38
Slowest flit = 10002356
Fragmentation average = 0
	minimum = 0
	maximum = 0
Injected packet rate average = 0.0238335
	minimum = 0.0188602 (at node 0)
	maximum = 0.0282903 (at node 7)
Accepted packet rate average = 0.0238335
	minimum = 0.0188602 (at node 0)
	maximum = 0.0282903 (at node 7)
Injected flit rate average = 0.0656888
	minimum = 0.0434604 (at node 0)
	maximum = 0.0870746 (at node 42)
Accepted flit rate average= 0.0656888
	minimum = 0.0604756 (at node 0)
	maximum = 0.0907134 (at node 7)
Injected packet length average = 2.75615
Accepted packet length average = 2.75615
Total in-flight flits = 0 (0 measured)
====== Overall Traffic Statistics ======
====== Traffic class 0 ======
Packet latency average = 8.90954 (40 samples)
	minimum = 6 (40 samples)
	maximum = 83.175 (40 samples)
Network latency average = 8.67307 (40 samples)
	minimum = 6 (40 samples)
	maximum = 79.825 (40 samples)
Flit latency average = 7.2472 (40 samples)
	minimum = 6 (40 samples)
	maximum = 76.15 (40 samples)
Fragmentation average = 0.0275674 (40 samples)
	minimum = 0 (40 samples)
	maximum = 34.825 (40 samples)
Injected packet rate average = 0.0230525 (40 samples)
	minimum = 0.0182422 (40 samples)
	maximum = 0.027363 (40 samples)
Accepted packet rate average = 0.0230525 (40 samples)
	minimum = 0.0182422 (40 samples)
	maximum = 0.027363 (40 samples)
Injected flit rate average = 0.0635362 (40 samples)
	minimum = 0.0420358 (40 samples)
	maximum = 0.0842244 (40 samples)
Accepted flit rate average = 0.0635362 (40 samples)
	minimum = 0.0584946 (40 samples)
	maximum = 0.0877409 (40 samples)
Injected packet size average = 2.75615 (40 samples)
Accepted packet size average = 2.75615 (40 samples)
Hops average = 1 (40 samples)
----------------------------END-of-Interconnect-DETAILS-------------------------


gpgpu_simulation_time = 0 days, 1 hrs, 28 min, 14 sec (5294 sec)
gpgpu_simulation_rate = 217974 (inst/sec)
gpgpu_simulation_rate = 2069 (cycle/sec)
========================================UVM statistics==============================
========================================TLB statistics(access)==============================
Shader0: Tlb_access: 66226 Tlb_hit: 62707 Tlb_miss: 3519 Tlb_hit_rate: 0.946864
Shader1: Tlb_access: 66812 Tlb_hit: 63059 Tlb_miss: 3753 Tlb_hit_rate: 0.943827
Shader2: Tlb_access: 66812 Tlb_hit: 63008 Tlb_miss: 3804 Tlb_hit_rate: 0.943064
Shader3: Tlb_access: 66812 Tlb_hit: 63162 Tlb_miss: 3650 Tlb_hit_rate: 0.945369
Shader4: Tlb_access: 66812 Tlb_hit: 63162 Tlb_miss: 3650 Tlb_hit_rate: 0.945369
Shader5: Tlb_access: 66812 Tlb_hit: 63113 Tlb_miss: 3699 Tlb_hit_rate: 0.944636
Shader6: Tlb_access: 66812 Tlb_hit: 63072 Tlb_miss: 3740 Tlb_hit_rate: 0.944022
Shader7: Tlb_access: 66812 Tlb_hit: 63145 Tlb_miss: 3667 Tlb_hit_rate: 0.945115
Shader8: Tlb_access: 66812 Tlb_hit: 63168 Tlb_miss: 3644 Tlb_hit_rate: 0.945459
Shader9: Tlb_access: 66812 Tlb_hit: 63126 Tlb_miss: 3686 Tlb_hit_rate: 0.944830
Shader10: Tlb_access: 66812 Tlb_hit: 63072 Tlb_miss: 3740 Tlb_hit_rate: 0.944022
Shader11: Tlb_access: 66812 Tlb_hit: 63278 Tlb_miss: 3534 Tlb_hit_rate: 0.947105
Shader12: Tlb_access: 66812 Tlb_hit: 63299 Tlb_miss: 3513 Tlb_hit_rate: 0.947420
Shader13: Tlb_access: 66226 Tlb_hit: 62650 Tlb_miss: 3576 Tlb_hit_rate: 0.946003
Shader14: Tlb_access: 66226 Tlb_hit: 62617 Tlb_miss: 3609 Tlb_hit_rate: 0.945505
Shader15: Tlb_access: 66076 Tlb_hit: 62502 Tlb_miss: 3574 Tlb_hit_rate: 0.945911
Shader16: Tlb_access: 66076 Tlb_hit: 62518 Tlb_miss: 3558 Tlb_hit_rate: 0.946153
Shader17: Tlb_access: 66076 Tlb_hit: 62387 Tlb_miss: 3689 Tlb_hit_rate: 0.944170
Shader18: Tlb_access: 66076 Tlb_hit: 62343 Tlb_miss: 3733 Tlb_hit_rate: 0.943504
Shader19: Tlb_access: 66226 Tlb_hit: 62688 Tlb_miss: 3538 Tlb_hit_rate: 0.946577
Shader20: Tlb_access: 66226 Tlb_hit: 62690 Tlb_miss: 3536 Tlb_hit_rate: 0.946607
Shader21: Tlb_access: 66226 Tlb_hit: 62655 Tlb_miss: 3571 Tlb_hit_rate: 0.946079
Shader22: Tlb_access: 66226 Tlb_hit: 62588 Tlb_miss: 3638 Tlb_hit_rate: 0.945067
Shader23: Tlb_access: 66076 Tlb_hit: 62495 Tlb_miss: 3581 Tlb_hit_rate: 0.945805
Shader24: Tlb_access: 66076 Tlb_hit: 62535 Tlb_miss: 3541 Tlb_hit_rate: 0.946410
Shader25: Tlb_access: 66076 Tlb_hit: 62394 Tlb_miss: 3682 Tlb_hit_rate: 0.944276
Shader26: Tlb_access: 66076 Tlb_hit: 62352 Tlb_miss: 3724 Tlb_hit_rate: 0.943641
Shader27: Tlb_access: 66226 Tlb_hit: 62687 Tlb_miss: 3539 Tlb_hit_rate: 0.946562
Tlb_tot_access: 1860160 Tlb_tot_hit: 1758472, Tlb_tot_miss: 101688, Tlb_tot_hit_rate: 0.945334
========================================TLB statistics(validate)==============================
Shader0: Tlb_validate: 1024 Tlb_invalidate: 960 Tlb_evict: 0 Tlb_page_evict: 960
Shader1: Tlb_validate: 1024 Tlb_invalidate: 960 Tlb_evict: 0 Tlb_page_evict: 960
Shader2: Tlb_validate: 1024 Tlb_invalidate: 960 Tlb_evict: 0 Tlb_page_evict: 960
Shader3: Tlb_validate: 1024 Tlb_invalidate: 960 Tlb_evict: 0 Tlb_page_evict: 960
Shader4: Tlb_validate: 1024 Tlb_invalidate: 960 Tlb_evict: 0 Tlb_page_evict: 960
Shader5: Tlb_validate: 1024 Tlb_invalidate: 960 Tlb_evict: 0 Tlb_page_evict: 960
Shader6: Tlb_validate: 1024 Tlb_invalidate: 960 Tlb_evict: 0 Tlb_page_evict: 960
Shader7: Tlb_validate: 1024 Tlb_invalidate: 960 Tlb_evict: 0 Tlb_page_evict: 960
Shader8: Tlb_validate: 1024 Tlb_invalidate: 960 Tlb_evict: 0 Tlb_page_evict: 960
Shader9: Tlb_validate: 1024 Tlb_invalidate: 960 Tlb_evict: 0 Tlb_page_evict: 960
Shader10: Tlb_validate: 1024 Tlb_invalidate: 960 Tlb_evict: 0 Tlb_page_evict: 960
Shader11: Tlb_validate: 1024 Tlb_invalidate: 960 Tlb_evict: 0 Tlb_page_evict: 960
Shader12: Tlb_validate: 1024 Tlb_invalidate: 960 Tlb_evict: 0 Tlb_page_evict: 960
Shader13: Tlb_validate: 1024 Tlb_invalidate: 960 Tlb_evict: 0 Tlb_page_evict: 960
Shader14: Tlb_validate: 1024 Tlb_invalidate: 960 Tlb_evict: 0 Tlb_page_evict: 960
Shader15: Tlb_validate: 1024 Tlb_invalidate: 960 Tlb_evict: 0 Tlb_page_evict: 960
Shader16: Tlb_validate: 1024 Tlb_invalidate: 960 Tlb_evict: 0 Tlb_page_evict: 960
Shader17: Tlb_validate: 1024 Tlb_invalidate: 960 Tlb_evict: 0 Tlb_page_evict: 960
Shader18: Tlb_validate: 1024 Tlb_invalidate: 960 Tlb_evict: 0 Tlb_page_evict: 960
Shader19: Tlb_validate: 1024 Tlb_invalidate: 960 Tlb_evict: 0 Tlb_page_evict: 960
Shader20: Tlb_validate: 1024 Tlb_invalidate: 960 Tlb_evict: 0 Tlb_page_evict: 960
Shader21: Tlb_validate: 1024 Tlb_invalidate: 960 Tlb_evict: 0 Tlb_page_evict: 960
Shader22: Tlb_validate: 1024 Tlb_invalidate: 960 Tlb_evict: 0 Tlb_page_evict: 960
Shader23: Tlb_validate: 1024 Tlb_invalidate: 960 Tlb_evict: 0 Tlb_page_evict: 960
Shader24: Tlb_validate: 1024 Tlb_invalidate: 960 Tlb_evict: 0 Tlb_page_evict: 960
Shader25: Tlb_validate: 1024 Tlb_invalidate: 960 Tlb_evict: 0 Tlb_page_evict: 960
Shader26: Tlb_validate: 1024 Tlb_invalidate: 960 Tlb_evict: 0 Tlb_page_evict: 960
Shader27: Tlb_validate: 1024 Tlb_invalidate: 960 Tlb_evict: 0 Tlb_page_evict: 960
Tlb_tot_valiate: 28672 Tlb_invalidate: 26880, Tlb_tot_evict: 0, Tlb_tot_evict page: 26880
========================================TLB statistics(thrashing)==============================
Shader0: Total 0
Shader1: Total 0
Shader2: Total 0
Shader3: Total 0
Shader4: Total 0
Shader5: Total 0
Shader6: Total 0
Shader7: Total 0
Shader8: Total 0
Shader9: Total 0
Shader10: Total 0
Shader11: Total 0
Shader12: Total 0
Shader13: Total 0
Shader14: Total 0
Shader15: Total 0
Shader16: Total 0
Shader17: Total 0
Shader18: Total 0
Shader19: Total 0
Shader20: Total 0
Shader21: Total 0
Shader22: Total 0
Shader23: Total 0
Shader24: Total 0
Shader25: Total 0
Shader26: Total 0
Shader27: Total 0
Tlb_tot_thrash: 0
========================================Page fault statistics==============================
Shader0: Page_table_access:3519 Page_hit: 3022 Page_miss: 497 Page_hit_rate: 0.858767
Shader1: Page_table_access:3753 Page_hit: 3041 Page_miss: 712 Page_hit_rate: 0.810285
Shader2: Page_table_access:3804 Page_hit: 3092 Page_miss: 712 Page_hit_rate: 0.812829
Shader3: Page_table_access:3650 Page_hit: 2886 Page_miss: 764 Page_hit_rate: 0.790685
Shader4: Page_table_access:3650 Page_hit: 2886 Page_miss: 764 Page_hit_rate: 0.790685
Shader5: Page_table_access:3699 Page_hit: 2955 Page_miss: 744 Page_hit_rate: 0.798865
Shader6: Page_table_access:3740 Page_hit: 2996 Page_miss: 744 Page_hit_rate: 0.801069
Shader7: Page_table_access:3667 Page_hit: 2975 Page_miss: 692 Page_hit_rate: 0.811290
Shader8: Page_table_access:3644 Page_hit: 2952 Page_miss: 692 Page_hit_rate: 0.810099
Shader9: Page_table_access:3686 Page_hit: 3190 Page_miss: 496 Page_hit_rate: 0.865437
Shader10: Page_table_access:3740 Page_hit: 3244 Page_miss: 496 Page_hit_rate: 0.867380
Shader11: Page_table_access:3534 Page_hit: 3038 Page_miss: 496 Page_hit_rate: 0.859649
Shader12: Page_table_access:3513 Page_hit: 3017 Page_miss: 496 Page_hit_rate: 0.858810
Shader13: Page_table_access:3576 Page_hit: 3080 Page_miss: 496 Page_hit_rate: 0.861298
Shader14: Page_table_access:3609 Page_hit: 3113 Page_miss: 496 Page_hit_rate: 0.862566
Shader15: Page_table_access:3574 Page_hit: 3078 Page_miss: 496 Page_hit_rate: 0.861220
Shader16: Page_table_access:3558 Page_hit: 3062 Page_miss: 496 Page_hit_rate: 0.860596
Shader17: Page_table_access:3689 Page_hit: 3193 Page_miss: 496 Page_hit_rate: 0.865546
Shader18: Page_table_access:3733 Page_hit: 3237 Page_miss: 496 Page_hit_rate: 0.867131
Shader19: Page_table_access:3538 Page_hit: 3042 Page_miss: 496 Page_hit_rate: 0.859808
Shader20: Page_table_access:3536 Page_hit: 3040 Page_miss: 496 Page_hit_rate: 0.859729
Shader21: Page_table_access:3571 Page_hit: 3075 Page_miss: 496 Page_hit_rate: 0.861103
Shader22: Page_table_access:3638 Page_hit: 3142 Page_miss: 496 Page_hit_rate: 0.863661
Shader23: Page_table_access:3581 Page_hit: 3085 Page_miss: 496 Page_hit_rate: 0.861491
Shader24: Page_table_access:3541 Page_hit: 3045 Page_miss: 496 Page_hit_rate: 0.859927
Shader25: Page_table_access:3682 Page_hit: 3186 Page_miss: 496 Page_hit_rate: 0.865291
Shader26: Page_table_access:3724 Page_hit: 3228 Page_miss: 496 Page_hit_rate: 0.866810
Shader27: Page_table_access:3539 Page_hit: 3042 Page_miss: 497 Page_hit_rate: 0.859565
Page_table_tot_access: 101688 Page_tot_hit: 85942, Page_tot_miss 15746, Page_tot_hit_rate: 0.845154 Page_tot_fault: 12 Page_tot_pending: 15734
Total_memory_access_page_fault: 12, Average_latency: 345129.093750
========================================Page thrashing statistics==============================
Page_validate: 1024 Page_evict_dirty: 0 Page_evict_not_dirty: 0
Page_tot_thrash: 0
========================================Memory access statistics==============================
========================================Prefetch statistics==============================
Tot_page_hit: 0, Tot_page_miss: 0, Tot_page_fault: 0
Avg_page_latency: 0.000000, Avg_prefetch_size: -nan, Avg_prefetch_latency: 0.000000
========================================Rdma statistics==============================
Rdma_read: 0
Rdma_migration_read 0
Rdma_migration_write 0
========================================PCI-e statistics==============================
Pcie_read_utilization: 1.046703
[0-25]: 0.050022, [26-50]: 0.000000, [51-75]: 0.000000, [76-100]: 0.949978
Pcie_write_utilization: 0.000000
[0-25]: -nan, [26-50]: -nan, [51-75]: -nan, [76-100]: -nan
F:   222150----T:   752368 	 	 	 Kl: 1 	 Sm: 0 	 T: kernel_launch(358.013519)
F:   223546----T:   228187 	 St: c0000000 Sz: 28672 	 Sm: 0 	 T: memcpy_h2d(3.133693)
F:   228187----T:   233702 	 St: c0007000 Sz: 36864 	 Sm: 0 	 T: memcpy_h2d(3.723835)
F:   233702----T:   238343 	 St: c0010000 Sz: 28672 	 Sm: 0 	 T: memcpy_h2d(3.133693)
F:   238343----T:   243858 	 St: c0017000 Sz: 36864 	 Sm: 0 	 T: memcpy_h2d(3.723835)
F:   243858----T:   246463 	 St: c0020000 Sz: 4096 	 Sm: 0 	 T: memcpy_h2d(1.758947)
F:   246463----T:   262158 	 St: c0021000 Sz: 126976 	 Sm: 0 	 T: memcpy_h2d(10.597569)
F:   262158----T:   264763 	 St: c0210000 Sz: 4096 	 Sm: 0 	 T: memcpy_h2d(1.758947)
F:   264763----T:   273003 	 St: c0211000 Sz: 61440 	 Sm: 0 	 T: memcpy_h2d(5.563808)
F:   273003----T:   275608 	 St: c0220000 Sz: 4096 	 Sm: 0 	 T: memcpy_h2d(1.758947)
F:   275608----T:   283848 	 St: c0221000 Sz: 61440 	 Sm: 0 	 T: memcpy_h2d(5.563808)
F:   283848----T:   286453 	 St: c0040000 Sz: 4096 	 Sm: 0 	 T: memcpy_h2d(1.758947)
F:   286453----T:   317176 	 St: c0041000 Sz: 258048 	 Sm: 0 	 T: memcpy_h2d(20.744766)
F:   317176----T:   325878 	 St: c0200000 Sz: 65536 	 Sm: 0 	 T: memcpy_h2d(5.875760)
F:   325878----T:   328483 	 St: c0230000 Sz: 4096 	 Sm: 0 	 T: memcpy_h2d(1.758947)
F:   328483----T:   336723 	 St: c0231000 Sz: 61440 	 Sm: 0 	 T: memcpy_h2d(5.563808)
F:   336723----T:   339328 	 St: c0240000 Sz: 4096 	 Sm: 0 	 T: memcpy_h2d(1.758947)
F:   339328----T:   370051 	 St: c0241000 Sz: 258048 	 Sm: 0 	 T: memcpy_h2d(20.744766)
F:   370051----T:   372656 	 St: c0080000 Sz: 4096 	 Sm: 0 	 T: memcpy_h2d(1.758947)
F:   372656----T:   433492 	 St: c0081000 Sz: 520192 	 Sm: 0 	 T: memcpy_h2d(41.077652)
F:   434091----T:   436696 	 St: c0280000 Sz: 4096 	 Sm: 0 	 T: memcpy_h2d(1.758947)
F:   436696----T:   497532 	 St: c0281000 Sz: 520192 	 Sm: 0 	 T: memcpy_h2d(41.077652)
F:   497532----T:   500137 	 St: c0100000 Sz: 4096 	 Sm: 0 	 T: memcpy_h2d(1.758947)
F:   500137----T:   621226 	 St: c0101000 Sz: 1044480 	 Sm: 0 	 T: memcpy_h2d(81.761650)
F:   621827----T:   624432 	 St: c0300000 Sz: 4096 	 Sm: 0 	 T: memcpy_h2d(1.758947)
F:   624432----T:   745521 	 St: c0301000 Sz: 1044480 	 Sm: 0 	 T: memcpy_h2d(81.761650)
F:   974518----T:  1016098 	 	 	 Kl: 2 	 Sm: 0 	 T: kernel_launch(28.075624)
F:  1238248----T:  1279611 	 	 	 Kl: 3 	 Sm: 0 	 T: kernel_launch(27.929102)
F:  1501761----T:  1543335 	 	 	 Kl: 4 	 Sm: 0 	 T: kernel_launch(28.071573)
F:  1765485----T:  1806968 	 	 	 Kl: 5 	 Sm: 0 	 T: kernel_launch(28.010128)
F:  2029118----T:  2070701 	 	 	 Kl: 6 	 Sm: 0 	 T: kernel_launch(28.077650)
F:  2292851----T:  2334488 	 	 	 Kl: 7 	 Sm: 0 	 T: kernel_launch(28.114113)
F:  2556638----T:  2596085 	 	 	 Kl: 8 	 Sm: 0 	 T: kernel_launch(26.635382)
F:  2818235----T:  2857164 	 	 	 Kl: 9 	 Sm: 0 	 T: kernel_launch(26.285618)
F:  3079314----T:  3118788 	 	 	 Kl: 10 	 Sm: 0 	 T: kernel_launch(26.653612)
F:  3340938----T:  3379887 	 	 	 Kl: 11 	 Sm: 0 	 T: kernel_launch(26.299122)
F:  3602037----T:  3641197 	 	 	 Kl: 12 	 Sm: 0 	 T: kernel_launch(26.441593)
F:  3863347----T:  3902378 	 	 	 Kl: 13 	 Sm: 0 	 T: kernel_launch(26.354490)
F:  4124528----T:  4163862 	 	 	 Kl: 14 	 Sm: 0 	 T: kernel_launch(26.559082)
F:  4386012----T:  4424792 	 	 	 Kl: 15 	 Sm: 0 	 T: kernel_launch(26.185011)
F:  4646942----T:  4686110 	 	 	 Kl: 16 	 Sm: 0 	 T: kernel_launch(26.446995)
F:  4908260----T:  4947131 	 	 	 Kl: 17 	 Sm: 0 	 T: kernel_launch(26.246454)
F:  5169281----T:  5208521 	 	 	 Kl: 18 	 Sm: 0 	 T: kernel_launch(26.495611)
F:  5430671----T:  5469666 	 	 	 Kl: 19 	 Sm: 0 	 T: kernel_launch(26.330183)
F:  5691816----T:  5730953 	 	 	 Kl: 20 	 Sm: 0 	 T: kernel_launch(26.426064)
F:  5953103----T:  5991998 	 	 	 Kl: 21 	 Sm: 0 	 T: kernel_launch(26.262661)
F:  6214148----T:  6253221 	 	 	 Kl: 22 	 Sm: 0 	 T: kernel_launch(26.382849)
F:  6475371----T:  6514193 	 	 	 Kl: 23 	 Sm: 0 	 T: kernel_launch(26.213369)
F:  6736343----T:  6775509 	 	 	 Kl: 24 	 Sm: 0 	 T: kernel_launch(26.445644)
F:  6997659----T:  7036490 	 	 	 Kl: 25 	 Sm: 0 	 T: kernel_launch(26.219446)
F:  7258640----T:  7298009 	 	 	 Kl: 26 	 Sm: 0 	 T: kernel_launch(26.582714)
F:  7520159----T:  7558951 	 	 	 Kl: 27 	 Sm: 0 	 T: kernel_launch(26.193113)
F:  7781101----T:  7820090 	 	 	 Kl: 28 	 Sm: 0 	 T: kernel_launch(26.326132)
F:  8042240----T:  8081130 	 	 	 Kl: 29 	 Sm: 0 	 T: kernel_launch(26.259285)
F:  8303280----T:  8342369 	 	 	 Kl: 30 	 Sm: 0 	 T: kernel_launch(26.393654)
F:  8564519----T:  8603508 	 	 	 Kl: 31 	 Sm: 0 	 T: kernel_launch(26.326132)
F:  8825658----T:  8864872 	 	 	 Kl: 32 	 Sm: 0 	 T: kernel_launch(26.478056)
F:  9087022----T:  9126069 	 	 	 Kl: 33 	 Sm: 0 	 T: kernel_launch(26.365294)
F:  9348219----T:  9387386 	 	 	 Kl: 34 	 Sm: 0 	 T: kernel_launch(26.446320)
F:  9609536----T:  9648392 	 	 	 Kl: 35 	 Sm: 0 	 T: kernel_launch(26.236326)
F:  9870542----T:  9909673 	 	 	 Kl: 36 	 Sm: 0 	 T: kernel_launch(26.422012)
F: 10131823----T: 10170690 	 	 	 Kl: 37 	 Sm: 0 	 T: kernel_launch(26.243753)
F: 10392840----T: 10431909 	 	 	 Kl: 38 	 Sm: 0 	 T: kernel_launch(26.380148)
F: 10654059----T: 10692992 	 	 	 Kl: 39 	 Sm: 0 	 T: kernel_launch(26.288319)
F: 10915142----T: 10954167 	 	 	 Kl: 40 	 Sm: 0 	 T: kernel_launch(26.350439)
F: 10954167----T: 10956772 	 St: 0 Sz: 4096 	 Sm: 0 	 T: device_sync(1.758947)
F: 10954167----T: 10962407 	 St: 0 Sz: 61440 	 Sm: 0 	 T: device_sync(5.563808)
F: 10965012----T: 10967617 	 St: 0 Sz: 4096 	 Sm: 0 	 T: device_sync(1.758947)
F: 10965012----T: 10973252 	 St: 0 Sz: 61440 	 Sm: 0 	 T: device_sync(5.563808)
F: 10975857----T: 10978462 	 St: 0 Sz: 4096 	 Sm: 0 	 T: device_sync(1.758947)
F: 10975857----T: 10991552 	 St: 0 Sz: 126976 	 Sm: 0 	 T: device_sync(10.597569)
F: 10994157----T: 10996762 	 St: 0 Sz: 4096 	 Sm: 0 	 T: device_sync(1.758947)
F: 10994157----T: 11024880 	 St: 0 Sz: 258048 	 Sm: 0 	 T: device_sync(20.744766)
F: 11027485----T: 11030090 	 St: 0 Sz: 4096 	 Sm: 0 	 T: device_sync(1.758947)
F: 11027485----T: 11088321 	 St: 0 Sz: 520192 	 Sm: 0 	 T: device_sync(41.077652)
F: 11090926----T: 11093531 	 St: 0 Sz: 4096 	 Sm: 0 	 T: device_sync(1.758947)
F: 11090926----T: 11212015 	 St: 0 Sz: 1044480 	 Sm: 0 	 T: device_sync(81.761650)
F: 11214620----T: 11217225 	 St: 0 Sz: 4096 	 Sm: 0 	 T: device_sync(1.758947)
F: 11214620----T: 11222860 	 St: 0 Sz: 61440 	 Sm: 0 	 T: device_sync(5.563808)
F: 11225465----T: 11228070 	 St: 0 Sz: 4096 	 Sm: 0 	 T: device_sync(1.758947)
F: 11225465----T: 11233705 	 St: 0 Sz: 61440 	 Sm: 0 	 T: device_sync(5.563808)
F: 11236310----T: 11238915 	 St: 0 Sz: 4096 	 Sm: 0 	 T: device_sync(1.758947)
F: 11236310----T: 11252005 	 St: 0 Sz: 126976 	 Sm: 0 	 T: device_sync(10.597569)
F: 11254610----T: 11257215 	 St: 0 Sz: 4096 	 Sm: 0 	 T: device_sync(1.758947)
F: 11254610----T: 11285333 	 St: 0 Sz: 258048 	 Sm: 0 	 T: device_sync(20.744766)
F: 11287938----T: 11290543 	 St: 0 Sz: 4096 	 Sm: 0 	 T: device_sync(1.758947)
F: 11287938----T: 11348774 	 St: 0 Sz: 520192 	 Sm: 0 	 T: device_sync(41.077652)
F: 11351379----T: 11353984 	 St: 0 Sz: 4096 	 Sm: 0 	 T: device_sync(1.758947)
F: 11351379----T: 11442340 	 St: 0 Sz: 782336 	 Sm: 0 	 T: device_sync(61.418636)
Tot_prefetch_time: 0(cycle), 0.000000(us)
Tot_kernel_exec_time: 2068167(cycle), 1396.466553(us)
Tot_kernel_exec_time_and_fault_time: 2867907(cycle), 1936.466553(us)
Tot_memcpy_h2d_time: 520775(cycle), 351.637421(us)
Tot_memcpy_d2h_time: 0(cycle), 0.000000(us)
Tot_memcpy_time: 520775(cycle), 351.637421(us)
Tot_devicesync_time: 490778(cycle), 331.382843(us)
Tot_writeback_time: 0(cycle), 0.000000(us)
Tot_rdma_time: 0(cycle), 0.000000(us)
Tot_memcpy_d2h_sync_wb_time: 490778(cycle), 331.382843(us)
GPGPU-Sim: *** exit detected ***
