

        *** GPGPU-Sim Simulator Version 3.2.2  [build gpgpu-sim_git-commit-7c62de1d26a7fea160a1181332b97276bc435f13_modified_409] ***


GPGPU-Sim PTX: simulation mode 0 (can change with PTX_SIM_MODE_FUNC environment variable:
               1=functional simulation only, 0=detailed performance simulator)
GPGPU-Sim: Configuration options:

-network_mode                           1 # Interconnection network mode
-inter_config_file   config_fermi_islip.icnt # Interconnection network config file
-gpgpu_ptx_use_cuobjdump                    1 # Use cuobjdump to extract ptx and sass from binaries
-gpgpu_experimental_lib_support                    0 # Try to extract code from cuda libraries [Broken because of unknown cudaGetExportTable]
-gpgpu_ptx_convert_to_ptxplus                    0 # Convert SASS (native ISA) to ptxplus and run ptxplus
-gpgpu_ptx_force_max_capability                   20 # Force maximum compute capability
-gpgpu_ptx_inst_debug_to_file                    0 # Dump executed instructions' debug information to file
-gpgpu_ptx_inst_debug_file       inst_debug.txt # Executed instructions' debug output file
-gpgpu_ptx_inst_debug_thread_uid                    1 # Thread UID for executed instructions' debug output
-gpgpu_simd_model                       1 # 1 = post-dominator
-gpgpu_shader_core_pipeline              2048:32 # shader core pipeline config, i.e., {<nthread>:<warpsize>}
-gpgpu_tex_cache:l1  16:128:24,L:R:m:N:L,F:128:4,128:2 # per-shader L1 texture cache  (READ-ONLY) config  {<nsets>:<bsize>:<assoc>,<rep>:<wr>:<alloc>:<wr_alloc>,<mshr>:<N>:<merge>,<mq>:<rf>}
-gpgpu_const_cache:l1 128:64:2,L:R:f:N:L,A:2:64,4 # per-shader L1 constant memory cache  (READ-ONLY) config  {<nsets>:<bsize>:<assoc>,<rep>:<wr>:<alloc>:<wr_alloc>,<mshr>:<N>:<merge>,<mq>} 
-gpgpu_cache:il1     8:128:4,L:R:f:N:L,A:2:48,4 # shader L1 instruction cache config  {<nsets>:<bsize>:<assoc>,<rep>:<wr>:<alloc>:<wr_alloc>,<mshr>:<N>:<merge>,<mq>} 
-gpgpu_cache:dl1     64:128:6,L:L:m:N:H,A:128:8,8 # per-shader L1 data cache config  {<nsets>:<bsize>:<assoc>,<rep>:<wr>:<alloc>:<wr_alloc>,<mshr>:<N>:<merge>,<mq> | none}
-gpgpu_cache:dl1PrefL1                 none # per-shader L1 data cache config  {<nsets>:<bsize>:<assoc>,<rep>:<wr>:<alloc>:<wr_alloc>,<mshr>:<N>:<merge>,<mq> | none}
-gpgpu_cache:dl1PrefShared                 none # per-shader L1 data cache config  {<nsets>:<bsize>:<assoc>,<rep>:<wr>:<alloc>:<wr_alloc>,<mshr>:<N>:<merge>,<mq> | none}
-gmem_skip_L1D                          1 # global memory access skip L1D cache (implements -Xptxas -dlcm=cg, default=no skip)
-gpgpu_perfect_mem                      0 # enable perfect memory mode (no cache miss)
-n_regfile_gating_group                    4 # group of lanes that should be read/written together)
-gpgpu_clock_gated_reg_file                    0 # enable clock gated reg file for power calculations
-gpgpu_clock_gated_lanes                    0 # enable clock gated lanes for power calculations
-gpgpu_shader_registers                65536 # Number of registers per shader core. Limits number of concurrent CTAs. (default 8192)
-gpgpu_shader_cta                      32 # Maximum number of concurrent CTAs in shader (default 8)
-gpgpu_num_cta_barriers                   16 # Maximum number of named barriers per CTA (default 16)
-gpgpu_n_clusters                      28 # number of processing clusters
-gpgpu_n_cores_per_cluster                    1 # number of simd cores per cluster
-gpgpu_n_cluster_ejection_buffer_size                    8 # number of packets in ejection buffer
-gpgpu_n_ldst_response_buffer_size                    2 # number of response packets in ld/st unit ejection buffer
-gpgpu_shmem_size                   16384 # Size of shared memory per shader core (default 16kB)
-gpgpu_shmem_size                   98304 # Size of shared memory per shader core (default 16kB)
-gpgpu_shmem_size_PrefL1                16384 # Size of shared memory per shader core (default 16kB)
-gpgpu_shmem_size_PrefShared                16384 # Size of shared memory per shader core (default 16kB)
-gpgpu_shmem_num_banks                   32 # Number of banks in the shared memory in each shader core (default 16)
-gpgpu_shmem_limited_broadcast                    0 # Limit shared memory to do one broadcast per cycle (default on)
-gpgpu_shmem_warp_parts                    1 # Number of portions a warp is divided into for shared memory bank conflict check 
-gpgpu_warpdistro_shader                   -1 # Specify which shader core to collect the warp size distribution from
-gpgpu_warp_issue_shader                    0 # Specify which shader core to collect the warp issue distribution from
-gpgpu_local_mem_map                    1 # Mapping from local memory space address to simulated GPU physical address space (default = enabled)
-gpgpu_num_reg_banks                   32 # Number of register banks (default = 8)
-gpgpu_reg_bank_use_warp_id                    0 # Use warp ID in mapping registers to banks (default = off)
-gpgpu_operand_collector_num_units_sp                   20 # number of collector units (default = 4)
-gpgpu_operand_collector_num_units_sfu                    4 # number of collector units (default = 4)
-gpgpu_operand_collector_num_units_mem                    8 # number of collector units (default = 2)
-gpgpu_operand_collector_num_units_gen                    0 # number of collector units (default = 0)
-gpgpu_operand_collector_num_in_ports_sp                    4 # number of collector unit in ports (default = 1)
-gpgpu_operand_collector_num_in_ports_sfu                    1 # number of collector unit in ports (default = 1)
-gpgpu_operand_collector_num_in_ports_mem                    1 # number of collector unit in ports (default = 1)
-gpgpu_operand_collector_num_in_ports_gen                    0 # number of collector unit in ports (default = 0)
-gpgpu_operand_collector_num_out_ports_sp                    4 # number of collector unit in ports (default = 1)
-gpgpu_operand_collector_num_out_ports_sfu                    1 # number of collector unit in ports (default = 1)
-gpgpu_operand_collector_num_out_ports_mem                    1 # number of collector unit in ports (default = 1)
-gpgpu_operand_collector_num_out_ports_gen                    0 # number of collector unit in ports (default = 0)
-gpgpu_coalesce_arch                   13 # Coalescing arch (default = 13, anything else is off for now)
-gpgpu_num_sched_per_core                    2 # Number of warp schedulers per core
-gpgpu_max_insn_issue_per_warp                    2 # Max number of instructions that can be issued per warp in one cycle by scheduler
-gpgpu_simt_core_sim_order                    1 # Select the simulation order of cores in a cluster (0=Fix, 1=Round-Robin)
-gpgpu_pipeline_widths        4,1,1,4,1,1,6 # Pipeline widths ID_OC_SP,ID_OC_SFU,ID_OC_MEM,OC_EX_SP,OC_EX_SFU,OC_EX_MEM,EX_WB
-gpgpu_num_sp_units                     4 # Number of SP units (default=1)
-gpgpu_num_sfu_units                    1 # Number of SF units (default=1)
-gpgpu_num_mem_units                    1 # Number if ldst units (default=1) WARNING: not hooked up to anything
-gpgpu_scheduler                      gto # Scheduler configuration: < lrr | gto | two_level_active > If two_level_active:<num_active_warps>:<inner_prioritization>:<outer_prioritization>For complete list of prioritization values see shader.h enum scheduler_prioritization_typeDefault: gto
-gpgpu_concurrent_kernel_sm                    0 # Support concurrent kernels on a SM (default = disabled)
-tlb_size                            4096 # Number of tlb entries per SM.
-gpgpu_dram_scheduler                    1 # 0 = fifo, 1 = FR-FCFS (defaul)
-gpgpu_dram_partition_queues              8:8:8:8 # i2$:$2d:d2$:$2i
-l2_ideal                               0 # Use a ideal L2 cache that always hit
-gpgpu_cache:dl2     64:128:16,L:B:m:W:L,A:1024:1024,4:0,32 # unified banked L2 data cache config  {<nsets>:<bsize>:<assoc>,<rep>:<wr>:<alloc>:<wr_alloc>,<mshr>:<N>:<merge>,<mq>}
-gpgpu_cache:dl2_texture_only                    0 # L2 cache used for texture only
-gpgpu_n_mem                           11 # number of memory modules (e.g. memory controllers) in gpu
-gpgpu_n_sub_partition_per_mchannel                    2 # number of memory subpartition in each memory module
-gpgpu_n_mem_per_ctrlr                    1 # number of memory chips per memory controller
-gpgpu_memlatency_stat                   14 # track and display latency statistics 0x2 enables MC, 0x4 enables queue logs
-gpgpu_frfcfs_dram_sched_queue_size                   64 # 0 = unlimited (default); # entries per chip
-gpgpu_dram_return_queue_size                  116 # 0 = unlimited (default); # entries per chip
-gpgpu_dram_buswidth                    4 # default = 4 bytes (8 bytes per cycle at DDR)
-gpgpu_dram_burst_length                    8 # Burst length of each DRAM request (default = 4 data bus cycle)
-dram_data_command_freq_ratio                    4 # Frequency ratio between DRAM data bus and command bus (default = 2 times, i.e. DDR)
-gpgpu_dram_timing_opt nbk=16:CCD=2:RRD=6:RCD=12:RAS=28:RP=12:RC=40: CL=12:WL=4:CDLR=5:WR=12:nbkgrp=1:CCDL=0:RTPL=0 # DRAM timing parameters = {nbk:tCCD:tRRD:tRCD:tRAS:tRP:tRC:CL:WL:tCDLR:tWR:nbkgrp:tCCDL:tRTPL}
-rop_latency                          120 # ROP queue latency (default 85)
-dram_latency                         100 # DRAM latency (default 30)
-gpgpu_mem_addr_mapping dramid@8;00000000.00000000.00000000.00000000.0000RRRR.RRRRRRRR.RBBBCCCC.BCCSSSSS # mapping memory address to dram model {dramid@<start bit>;<memory address map>}
-gpgpu_mem_addr_test                    0 # run sweep test to check address mapping for aliased address
-gpgpu_mem_address_mask                    1 # 0 = old addressing mask, 1 = new addressing mask, 2 = new add. mask + flipped bank sel and chip sel bits
-gpuwattch_xml_file  gpuwattch_geforcegtx1080ti.xml # GPUWattch XML file
-power_simulation_enabled                    1 # Turn on power simulator (1=On, 0=Off)
-power_per_cycle_dump                    0 # Dump detailed power output each cycle
-power_trace_enabled                    0 # produce a file for the power trace (1=On, 0=Off)
-power_trace_zlevel                     6 # Compression level of the power trace output log (0=no comp, 9=highest)
-steady_power_levels_enabled                    0 # produce a file for the steady power levels (1=On, 0=Off)
-steady_state_definition                  8:4 # allowed deviation:number of samples
-gpgpu_max_cycle                        0 # terminates gpu simulation early (0 = no limit)
-gpgpu_max_insn                         0 # terminates gpu simulation early (0 = no limit)
-gpgpu_max_cta                          0 # terminates gpu simulation early (0 = no limit)
-gpgpu_runtime_stat                   500 # display runtime statistics such as dram utilization {<freq>:<flag>}
-liveness_message_freq                    1 # Minimum number of seconds between simulation liveness messages (0 = always print)
-gpgpu_flush_l1_cache                    0 # Flush L1 cache at the end of each kernel call
-gpgpu_flush_l2_cache                    0 # Flush L2 cache at the end of each kernel call
-gpgpu_deadlock_detect                    0 # Stop the simulation at deadlock (1=on (default), 0=off)
-gpgpu_ptx_instruction_classification                    0 # if enabled will classify ptx instruction types per kernel (Max 255 kernels now)
-gpgpu_ptx_sim_mode                     0 # Select between Performance (default) or Functional simulation (1)
-gpgpu_clock_domains 1481.0:2962.0:1481.0:2750.0 # Clock Domain Frequencies in MhZ {<Core Clock>:<ICNT Clock>:<L2 Clock>:<DRAM Clock>}
-gpgpu_max_concurrent_kernel                    8 # maximum kernels that can run concurrently on GPU
-gpgpu_cflog_interval                    0 # Interval between each snapshot in control flow logger
-visualizer_enabled                     0 # Turn on visualizer output (1=On, 0=Off)
-visualizer_outputfile                 NULL # Specifies the output log file for visualizer
-visualizer_zlevel                      6 # Compression level of the visualizer output log (0=no comp, 9=highest)
-trace_enabled                          0 # Turn on traces
-trace_components                    none # comma seperated list of traces to enable. Complete list found in trace_streams.tup. Default none
-trace_sampling_core                    0 # The core which is printed using CORE_DPRINTF. Default 0
-trace_sampling_memory_partition                   -1 # The memory partition which is printed using MEMPART_DPRINTF. Default -1 (i.e. all)
-gddr_size                            1GB # Size of GDDR in MB/GB.(GLOBAL_HEAP_START, GLOBAL_HEAP_START + gddr_size) would be used for unmanged memory, (GLOBAL_HEAP_START + gddr_size, GLOBAL_HEAP_START + gddr_size*2) would be used for managed memory. 
-page_table_walk_latency                  100 # Average page table walk latency (in core cycle).
-eviction_policy                      lru # Memory eviction policy: lru or random.
-percentage_of_free_page_buffer                    0 # Percentage of free page buffer to trigger the page eviction.
-page_size                            4KB # GDDR page size, only 4KB/2MB avaliable.
-pcie_bandwith                   16.0GB/s # PCI-e bandwith per direction, in GB/s.
-sim_prof_enable                        1 # Enable gpgpu-sim profiler
-hardware_prefetch                      1 # Enable gpgpu-sim hardware prefetcher
-page_fault_latency                 66645 # Average fault latency (in core cycle).
-enable_accurate_simulation                    0 # Enable page fault functional simulation.
-enable_ptx_file_line_stats                    1 # Turn on PTX source line statistic profiling. (1 = On)
-ptx_line_stats_filename gpgpu_inst_stats.txt # Output file for PTX source line statistics.
-gpgpu_kernel_launch_latency               222150 # Kernel launch latency in cycles. Default: 0
-gpgpu_cdp_enabled                      0 # Turn on CDP
-save_embedded_ptx                      0 # saves ptx files embedded in binary as <n>.ptx
-keep                                   0 # keep intermediate files created by GPGPU-Sim when interfacing with external programs
-gpgpu_ptx_save_converted_ptxplus                    0 # Saved converted ptxplus to a file
-ptx_opcode_latency_int         4,13,4,5,145 # Opcode latencies for integers <ADD,MAX,MUL,MAD,DIV>Default 1,1,19,25,145
-ptx_opcode_latency_fp          4,13,4,5,39 # Opcode latencies for single precision floating points <ADD,MAX,MUL,MAD,DIV>Default 1,1,1,1,30
-ptx_opcode_latency_dp         8,19,8,8,330 # Opcode latencies for double precision floating points <ADD,MAX,MUL,MAD,DIV>Default 8,8,8,8,335
-ptx_opcode_initiation_int            1,2,2,2,8 # Opcode initiation intervals for integers <ADD,MAX,MUL,MAD,DIV>Default 1,1,4,4,32
-ptx_opcode_initiation_fp            1,2,1,1,4 # Opcode initiation intervals for single precision floating points <ADD,MAX,MUL,MAD,DIV>Default 1,1,1,1,5
-ptx_opcode_initiation_dp          1,2,1,1,130 # Opcode initiation intervals for double precision floating points <ADD,MAX,MUL,MAD,DIV>Default 8,8,8,8,130
-cdp_latency         7200,8000,100,12000,1600 # CDP API latency <cudaStreamCreateWithFlags, cudaGetParameterBufferV2_init_perWarp, cudaGetParameterBufferV2_perKernel, cudaLaunchDeviceV2_init_perWarp, cudaLaunchDevicV2_perKernel>Default 7200,8000,100,12000,1600
DRAM Timing Options:
nbk                                    16 # number of banks
CCD                                     2 # column to column delay
RRD                                     6 # minimal delay between activation of rows in different banks
RCD                                    12 # row to column delay
RAS                                    28 # time needed to activate row
RP                                     12 # time needed to precharge (deactivate) row
RC                                     40 # row cycle time
CDLR                                    5 # switching from write to read (changes tWTR)
WR                                     12 # last data-in to row precharge
CL                                     12 # CAS latency
WL                                      4 # Write latency
nbkgrp                                  1 # number of bank groups
CCDL                                    0 # column to column delay between accesses to different bank groups
RTPL                                    0 # read to precharge delay between accesses to different bank groups
Total number of memory sub partition = 22
addr_dec_mask[CHIP]  = 0000000000000000 	high:64 low:0
addr_dec_mask[BK]    = 0000000000007080 	high:15 low:7
addr_dec_mask[ROW]   = 000000000fff8000 	high:28 low:15
addr_dec_mask[COL]   = 0000000000000f7f 	high:12 low:0
addr_dec_mask[BURST] = 000000000000001f 	high:5 low:0
sub_partition_id_mask = 0000000000000080
GPGPU-Sim uArch: clock freqs: 1481000000.000000:2962000000.000000:1481000000.000000:2750000000.000000
GPGPU-Sim uArch: clock periods: 0.00000000067521944632:0.00000000033760972316:0.00000000067521944632:0.00000000036363636364
*** Initializing Memory Statistics ***
GPGPU-Sim uArch: interconnect node map (shaderID+MemID to icntID)
GPGPU-Sim uArch: Memory nodes ID start from index: 28
GPGPU-Sim uArch:    0   1   2   3   4   5   6
GPGPU-Sim uArch:    7   8   9  10  11  12  13
GPGPU-Sim uArch:   14  15  16  17  18  19  20
GPGPU-Sim uArch:   21  22  23  24  25  26  27
GPGPU-Sim uArch:   28  29  30  31  32  33  34
GPGPU-Sim uArch:   35  36  37  38  39  40  41
GPGPU-Sim uArch:   42  43  44  45  46  47  48
GPGPU-Sim uArch:   49
GPGPU-Sim uArch: interconnect node reverse map (icntID to shaderID+MemID)
GPGPU-Sim uArch: Memory nodes start from ID: 28
GPGPU-Sim uArch:    0   1   2   3   4   5   6
GPGPU-Sim uArch:    7   8   9  10  11  12  13
GPGPU-Sim uArch:   14  15  16  17  18  19  20
GPGPU-Sim uArch:   21  22  23  24  25  26  27
GPGPU-Sim uArch:   28  29  30  31  32  33  34
GPGPU-Sim uArch:   35  36  37  38  39  40  41
GPGPU-Sim uArch:   42  43  44  45  46  47  48
GPGPU-Sim uArch:   49
f41fe4b6928b4fbf5db2f825829443ea  /home/gpuser/Documents/gpgpu-sim_UVM_0/benchmarks/Unmanaged/bfs/bfs
GPGPU-Sim uArch: performance model initialization complete.
GPGPU-Sim PTX: __cudaRegisterFatBinary, fat_cubin_handle = 1, filename=default
self exe links to: /home/gpuser/Documents/gpgpu-sim_UVM_0/benchmarks/Unmanaged/bfs/bfs
Running md5sum using "md5sum /home/gpuser/Documents/gpgpu-sim_UVM_0/benchmarks/Unmanaged/bfs/bfs "
Parsing file _cuobjdump_complete_output_O18gfv
######### cuobjdump parser ########
## Adding new section ELF
Adding arch: sm_20
Adding identifier: default
## Adding new section ELF
Adding arch: sm_20
Adding identifier: default
## Adding new section PTX
Adding ptx filename: _cuobjdump_1.ptx
Adding arch: sm_20
Adding identifier: default
Done parsing!!!
GPGPU-Sim PTX: __cudaRegisterFunction _Z7Kernel2PbS_S_S_i : hostFun 0x0x401827, fat_cubin_handle = 1
GPGPU-Sim PTX: instruction assembly for function '_Z6KernelP4NodePiPbS2_S2_S1_i'...   done.
GPGPU-Sim PTX: finding reconvergence points for '_Z6KernelP4NodePiPbS2_S2_S1_i'...
GPGPU-Sim PTX: Finding dominators for '_Z6KernelP4NodePiPbS2_S2_S1_i'...
GPGPU-Sim PTX: Finding immediate dominators for '_Z6KernelP4NodePiPbS2_S2_S1_i'...
GPGPU-Sim PTX: Finding postdominators for '_Z6KernelP4NodePiPbS2_S2_S1_i'...
GPGPU-Sim PTX: Finding immediate postdominators for '_Z6KernelP4NodePiPbS2_S2_S1_i'...
GPGPU-Sim PTX: pre-decoding instructions for '_Z6KernelP4NodePiPbS2_S2_S1_i'...
GPGPU-Sim PTX: reconvergence points for _Z6KernelP4NodePiPbS2_S2_S1_i...
GPGPU-Sim PTX:  1 (potential) branch divergence @  PC=0x060 (_1.ptx:42) @%p1 bra BB0_7;
GPGPU-Sim PTX:    immediate post dominator      @  PC=0x1e8 (_1.ptx:101) ret;
GPGPU-Sim PTX:  2 (potential) branch divergence @  PC=0x090 (_1.ptx:49) @%p2 bra BB0_7;
GPGPU-Sim PTX:    immediate post dominator      @  PC=0x1e8 (_1.ptx:101) ret;
GPGPU-Sim PTX:  3 (potential) branch divergence @  PC=0x0d8 (_1.ptx:59) @%p3 bra BB0_7;
GPGPU-Sim PTX:    immediate post dominator      @  PC=0x1e8 (_1.ptx:101) ret;
GPGPU-Sim PTX:  4 (potential) branch divergence @  PC=0x160 (_1.ptx:79) @%p4 bra BB0_6;
GPGPU-Sim PTX:    immediate post dominator      @  PC=0x1b8 (_1.ptx:93) mov.u32 %r24, %r25;
GPGPU-Sim PTX:  5 (potential) branch divergence @  PC=0x1e0 (_1.ptx:98) @%p5 bra BB0_4;
GPGPU-Sim PTX:    immediate post dominator      @  PC=0x1e8 (_1.ptx:101) ret;
GPGPU-Sim PTX: ... end of reconvergence points for _Z6KernelP4NodePiPbS2_S2_S1_i
GPGPU-Sim PTX: ... done pre-decoding instructions for '_Z6KernelP4NodePiPbS2_S2_S1_i'.
GPGPU-Sim PTX: instruction assembly for function '_Z7Kernel2PbS_S_S_i'...   done.
GPGPU-Sim PTX: finding reconvergence points for '_Z7Kernel2PbS_S_S_i'...
GPGPU-Sim PTX: Finding dominators for '_Z7Kernel2PbS_S_S_i'...
GPGPU-Sim PTX: Finding immediate dominators for '_Z7Kernel2PbS_S_S_i'...
GPGPU-Sim PTX: Finding postdominators for '_Z7Kernel2PbS_S_S_i'...
GPGPU-Sim PTX: Finding immediate postdominators for '_Z7Kernel2PbS_S_S_i'...
GPGPU-Sim PTX: pre-decoding instructions for '_Z7Kernel2PbS_S_S_i'...
GPGPU-Sim PTX: reconvergence points for _Z7Kernel2PbS_S_S_i...
GPGPU-Sim PTX:  1 (potential) branch divergence @  PC=0x240 (_1.ptx:129) @%p1 bra BB1_3;
GPGPU-Sim PTX:    immediate post dominator      @  PC=0x2d0 (_1.ptx:151) ret;
GPGPU-Sim PTX:  2 (potential) branch divergence @  PC=0x270 (_1.ptx:136) @%p2 bra BB1_3;
GPGPU-Sim PTX:    immediate post dominator      @  PC=0x2d0 (_1.ptx:151) ret;
GPGPU-Sim PTX: ... end of reconvergence points for _Z7Kernel2PbS_S_S_i
GPGPU-Sim PTX: ... done pre-decoding instructions for '_Z7Kernel2PbS_S_S_i'.
GPGPU-Sim PTX: finished parsing EMBEDDED .ptx file _1.ptx
Adding _cuobjdump_1.ptx with cubin handle 1
GPGPU-Sim PTX: extracting embedded .ptx to temporary file "_ptx_Bf1ICw"
Running: cat _ptx_Bf1ICw | sed 's/.version 1.5/.version 1.4/' | sed 's/, texmode_independent//' | sed 's/\(\.extern \.const\[1\] .b8 \w\+\)\[\]/\1\[1\]/' | sed 's/const\[.\]/const\[0\]/g' > _ptx2_m05c0x
GPGPU-Sim PTX: generating ptxinfo using "$CUDA_INSTALL_PATH/bin/ptxas --gpu-name=sm_20 -v _ptx2_m05c0x --output-file  /dev/null 2> _ptx_Bf1ICwinfo"
GPGPU-Sim PTX: Kernel '_Z7Kernel2PbS_S_S_i' : regs=12, lmem=0, smem=0, cmem=68
GPGPU-Sim PTX: Kernel '_Z6KernelP4NodePiPbS2_S2_S1_i' : regs=15, lmem=0, smem=0, cmem=84
GPGPU-Sim PTX: removing ptxinfo using "rm -f _ptx_Bf1ICw _ptx2_m05c0x _ptx_Bf1ICwinfo"
GPGPU-Sim PTX: loading globals with explicit initializers... 
GPGPU-Sim PTX: finished loading globals (0 bytes total).
GPGPU-Sim PTX: loading constants with explicit initializers...  done.
GPGPU-Sim PTX: __cudaRegisterFunction _Z6KernelP4NodePiPbS2_S2_S1_i : hostFun 0x0x4016f7, fat_cubin_handle = 1
Reading File
Read File
Copied Everything to GPU memory
Start traversing the tree

GPGPU-Sim PTX: cudaLaunch for 0x0x4016f7 (mode=performance simulation) on stream 0
GPGPU-Sim PTX: pushing kernel '_Z6KernelP4NodePiPbS2_S2_S1_i' to stream 0, gridDim= (128,1,1) blockDim = (512,1,1) 
GPGPU-Sim uArch: Shader 1 bind to kernel 1 '_Z6KernelP4NodePiPbS2_S2_S1_i'
GPGPU-Sim uArch: CTA/core = 4, limited by: threads
GPGPU-Sim uArch: Shader 2 bind to kernel 1 '_Z6KernelP4NodePiPbS2_S2_S1_i'
GPGPU-Sim uArch: Shader 3 bind to kernel 1 '_Z6KernelP4NodePiPbS2_S2_S1_i'
GPGPU-Sim uArch: Shader 4 bind to kernel 1 '_Z6KernelP4NodePiPbS2_S2_S1_i'
GPGPU-Sim uArch: Shader 5 bind to kernel 1 '_Z6KernelP4NodePiPbS2_S2_S1_i'
GPGPU-Sim uArch: Shader 6 bind to kernel 1 '_Z6KernelP4NodePiPbS2_S2_S1_i'
GPGPU-Sim uArch: Shader 7 bind to kernel 1 '_Z6KernelP4NodePiPbS2_S2_S1_i'
GPGPU-Sim uArch: Shader 8 bind to kernel 1 '_Z6KernelP4NodePiPbS2_S2_S1_i'
GPGPU-Sim uArch: Shader 9 bind to kernel 1 '_Z6KernelP4NodePiPbS2_S2_S1_i'
GPGPU-Sim uArch: Shader 10 bind to kernel 1 '_Z6KernelP4NodePiPbS2_S2_S1_i'
GPGPU-Sim uArch: Shader 11 bind to kernel 1 '_Z6KernelP4NodePiPbS2_S2_S1_i'
GPGPU-Sim uArch: Shader 12 bind to kernel 1 '_Z6KernelP4NodePiPbS2_S2_S1_i'
GPGPU-Sim uArch: Shader 13 bind to kernel 1 '_Z6KernelP4NodePiPbS2_S2_S1_i'
GPGPU-Sim uArch: Shader 14 bind to kernel 1 '_Z6KernelP4NodePiPbS2_S2_S1_i'
GPGPU-Sim uArch: Shader 15 bind to kernel 1 '_Z6KernelP4NodePiPbS2_S2_S1_i'
GPGPU-Sim uArch: Shader 16 bind to kernel 1 '_Z6KernelP4NodePiPbS2_S2_S1_i'
GPGPU-Sim uArch: Shader 17 bind to kernel 1 '_Z6KernelP4NodePiPbS2_S2_S1_i'
GPGPU-Sim uArch: Shader 18 bind to kernel 1 '_Z6KernelP4NodePiPbS2_S2_S1_i'
GPGPU-Sim uArch: Shader 19 bind to kernel 1 '_Z6KernelP4NodePiPbS2_S2_S1_i'
GPGPU-Sim uArch: Shader 20 bind to kernel 1 '_Z6KernelP4NodePiPbS2_S2_S1_i'
GPGPU-Sim uArch: Shader 21 bind to kernel 1 '_Z6KernelP4NodePiPbS2_S2_S1_i'
GPGPU-Sim uArch: Shader 22 bind to kernel 1 '_Z6KernelP4NodePiPbS2_S2_S1_i'
GPGPU-Sim uArch: Shader 23 bind to kernel 1 '_Z6KernelP4NodePiPbS2_S2_S1_i'
GPGPU-Sim uArch: Shader 24 bind to kernel 1 '_Z6KernelP4NodePiPbS2_S2_S1_i'
GPGPU-Sim uArch: Shader 25 bind to kernel 1 '_Z6KernelP4NodePiPbS2_S2_S1_i'
GPGPU-Sim uArch: Shader 26 bind to kernel 1 '_Z6KernelP4NodePiPbS2_S2_S1_i'
GPGPU-Sim uArch: Shader 27 bind to kernel 1 '_Z6KernelP4NodePiPbS2_S2_S1_i'
GPGPU-Sim uArch: Shader 0 bind to kernel 1 '_Z6KernelP4NodePiPbS2_S2_S1_i'
Destroy streams for kernel 1: size 0
kernel_name = _Z6KernelP4NodePiPbS2_S2_S1_i 
kernel_launch_uid = 1 
gpu_sim_cycle = 8193
gpu_sim_insn = 1245376
gpu_ipc =     152.0049
gpu_tot_sim_cycle = 533310
gpu_tot_sim_insn = 1245376
gpu_tot_ipc =       2.3352
gpu_tot_issued_cta = 128
max_total_param_size = 0
gpu_stall_dramfull = 653
gpu_stall_icnt2sh    = 6688
partiton_reqs_in_parallel = 179593
partiton_reqs_in_parallel_total    = 0
partiton_level_parallism =      21.9203
partiton_level_parallism_total  =       0.3368
partiton_reqs_in_parallel_util = 179593
partiton_reqs_in_parallel_util_total    = 0
gpu_sim_cycle_parition_util = 8193
gpu_tot_sim_cycle_parition_util    = 0
partiton_level_parallism_util =      21.9203
partiton_level_parallism_util_total  =      21.9203
partiton_replys_in_parallel = 2220
partiton_replys_in_parallel_total    = 0
L2_BW  =      25.6830 GB/Sec
L2_BW_total  =       0.3946 GB/Sec
gpu_total_sim_rate=56608

========= Core cache stats =========
L1I_cache:
	L1I_total_cache_accesses = 22632
	L1I_total_cache_misses = 3611
	L1I_total_cache_miss_rate = 0.1596
	L1I_total_cache_pending_hits = 0
	L1I_total_cache_reservation_fails = 9310
L1D_cache:
	L1D_cache_core[0]: Access = 0, Miss = 0, Miss_rate = -nan, Pending_hits = 0, Reservation_fails = 0
	L1D_cache_core[1]: Access = 0, Miss = 0, Miss_rate = -nan, Pending_hits = 0, Reservation_fails = 0
	L1D_cache_core[2]: Access = 0, Miss = 0, Miss_rate = -nan, Pending_hits = 0, Reservation_fails = 0
	L1D_cache_core[3]: Access = 0, Miss = 0, Miss_rate = -nan, Pending_hits = 0, Reservation_fails = 0
	L1D_cache_core[4]: Access = 0, Miss = 0, Miss_rate = -nan, Pending_hits = 0, Reservation_fails = 0
	L1D_cache_core[5]: Access = 0, Miss = 0, Miss_rate = -nan, Pending_hits = 0, Reservation_fails = 0
	L1D_cache_core[6]: Access = 0, Miss = 0, Miss_rate = -nan, Pending_hits = 0, Reservation_fails = 0
	L1D_cache_core[7]: Access = 0, Miss = 0, Miss_rate = -nan, Pending_hits = 0, Reservation_fails = 0
	L1D_cache_core[8]: Access = 0, Miss = 0, Miss_rate = -nan, Pending_hits = 0, Reservation_fails = 0
	L1D_cache_core[9]: Access = 0, Miss = 0, Miss_rate = -nan, Pending_hits = 0, Reservation_fails = 0
	L1D_cache_core[10]: Access = 0, Miss = 0, Miss_rate = -nan, Pending_hits = 0, Reservation_fails = 0
	L1D_cache_core[11]: Access = 0, Miss = 0, Miss_rate = -nan, Pending_hits = 0, Reservation_fails = 0
	L1D_cache_core[12]: Access = 0, Miss = 0, Miss_rate = -nan, Pending_hits = 0, Reservation_fails = 0
	L1D_cache_core[13]: Access = 0, Miss = 0, Miss_rate = -nan, Pending_hits = 0, Reservation_fails = 0
	L1D_cache_core[14]: Access = 0, Miss = 0, Miss_rate = -nan, Pending_hits = 0, Reservation_fails = 0
	L1D_cache_core[15]: Access = 0, Miss = 0, Miss_rate = -nan, Pending_hits = 0, Reservation_fails = 0
	L1D_cache_core[16]: Access = 0, Miss = 0, Miss_rate = -nan, Pending_hits = 0, Reservation_fails = 0
	L1D_cache_core[17]: Access = 0, Miss = 0, Miss_rate = -nan, Pending_hits = 0, Reservation_fails = 0
	L1D_cache_core[18]: Access = 0, Miss = 0, Miss_rate = -nan, Pending_hits = 0, Reservation_fails = 0
	L1D_cache_core[19]: Access = 0, Miss = 0, Miss_rate = -nan, Pending_hits = 0, Reservation_fails = 0
	L1D_cache_core[20]: Access = 0, Miss = 0, Miss_rate = -nan, Pending_hits = 0, Reservation_fails = 0
	L1D_cache_core[21]: Access = 0, Miss = 0, Miss_rate = -nan, Pending_hits = 0, Reservation_fails = 0
	L1D_cache_core[22]: Access = 0, Miss = 0, Miss_rate = -nan, Pending_hits = 0, Reservation_fails = 0
	L1D_cache_core[23]: Access = 0, Miss = 0, Miss_rate = -nan, Pending_hits = 0, Reservation_fails = 0
	L1D_cache_core[24]: Access = 0, Miss = 0, Miss_rate = -nan, Pending_hits = 0, Reservation_fails = 0
	L1D_cache_core[25]: Access = 0, Miss = 0, Miss_rate = -nan, Pending_hits = 0, Reservation_fails = 0
	L1D_cache_core[26]: Access = 0, Miss = 0, Miss_rate = -nan, Pending_hits = 0, Reservation_fails = 0
	L1D_cache_core[27]: Access = 0, Miss = 0, Miss_rate = -nan, Pending_hits = 0, Reservation_fails = 0
	L1D_total_cache_accesses = 0
	L1D_total_cache_misses = 0
	L1D_total_cache_pending_hits = 0
	L1D_total_cache_reservation_fails = 0
	L1D_cache_data_port_util = 0.000
	L1D_cache_fill_port_util = 0.000
L1C_cache:
	L1C_total_cache_accesses = 14336
	L1C_total_cache_misses = 1792
	L1C_total_cache_miss_rate = 0.1250
	L1C_total_cache_pending_hits = 0
	L1C_total_cache_reservation_fails = 4886
L1T_cache:
	L1T_total_cache_accesses = 0
	L1T_total_cache_misses = 0
	L1T_total_cache_pending_hits = 0
	L1T_total_cache_reservation_fails = 0

Total_core_cache_stats:
	Total_core_cache_stats_breakdown[GLOBAL_ACC_R][HIT] = 0
	Total_core_cache_stats_breakdown[GLOBAL_ACC_R][HIT_RESERVED] = 0
	Total_core_cache_stats_breakdown[GLOBAL_ACC_R][MISS] = 0
	Total_core_cache_stats_breakdown[GLOBAL_ACC_R][RESERVATION_FAIL] = 0
	Total_core_cache_stats_breakdown[LOCAL_ACC_R][HIT] = 0
	Total_core_cache_stats_breakdown[LOCAL_ACC_R][HIT_RESERVED] = 0
	Total_core_cache_stats_breakdown[LOCAL_ACC_R][MISS] = 0
	Total_core_cache_stats_breakdown[LOCAL_ACC_R][RESERVATION_FAIL] = 0
	Total_core_cache_stats_breakdown[CONST_ACC_R][HIT] = 12544
	Total_core_cache_stats_breakdown[CONST_ACC_R][HIT_RESERVED] = 0
	Total_core_cache_stats_breakdown[CONST_ACC_R][MISS] = 1792
	Total_core_cache_stats_breakdown[CONST_ACC_R][RESERVATION_FAIL] = 4886
	Total_core_cache_stats_breakdown[TEXTURE_ACC_R][HIT] = 0
	Total_core_cache_stats_breakdown[TEXTURE_ACC_R][HIT_RESERVED] = 0
	Total_core_cache_stats_breakdown[TEXTURE_ACC_R][MISS] = 0
	Total_core_cache_stats_breakdown[TEXTURE_ACC_R][RESERVATION_FAIL] = 0
	Total_core_cache_stats_breakdown[GLOBAL_ACC_W][HIT] = 0
	Total_core_cache_stats_breakdown[GLOBAL_ACC_W][HIT_RESERVED] = 0
	Total_core_cache_stats_breakdown[GLOBAL_ACC_W][MISS] = 0
	Total_core_cache_stats_breakdown[GLOBAL_ACC_W][RESERVATION_FAIL] = 0
	Total_core_cache_stats_breakdown[LOCAL_ACC_W][HIT] = 0
	Total_core_cache_stats_breakdown[LOCAL_ACC_W][HIT_RESERVED] = 0
	Total_core_cache_stats_breakdown[LOCAL_ACC_W][MISS] = 0
	Total_core_cache_stats_breakdown[LOCAL_ACC_W][RESERVATION_FAIL] = 0
	Total_core_cache_stats_breakdown[L1_WRBK_ACC][HIT] = 0
	Total_core_cache_stats_breakdown[L1_WRBK_ACC][HIT_RESERVED] = 0
	Total_core_cache_stats_breakdown[L1_WRBK_ACC][MISS] = 0
	Total_core_cache_stats_breakdown[L1_WRBK_ACC][RESERVATION_FAIL] = 0
	Total_core_cache_stats_breakdown[L2_WRBK_ACC][HIT] = 0
	Total_core_cache_stats_breakdown[L2_WRBK_ACC][HIT_RESERVED] = 0
	Total_core_cache_stats_breakdown[L2_WRBK_ACC][MISS] = 0
	Total_core_cache_stats_breakdown[L2_WRBK_ACC][RESERVATION_FAIL] = 0
	Total_core_cache_stats_breakdown[INST_ACC_R][HIT] = 19021
	Total_core_cache_stats_breakdown[INST_ACC_R][HIT_RESERVED] = 0
	Total_core_cache_stats_breakdown[INST_ACC_R][MISS] = 3611
	Total_core_cache_stats_breakdown[INST_ACC_R][RESERVATION_FAIL] = 9310
	Total_core_cache_stats_breakdown[L1_WR_ALLOC_R][HIT] = 0
	Total_core_cache_stats_breakdown[L1_WR_ALLOC_R][HIT_RESERVED] = 0
	Total_core_cache_stats_breakdown[L1_WR_ALLOC_R][MISS] = 0
	Total_core_cache_stats_breakdown[L1_WR_ALLOC_R][RESERVATION_FAIL] = 0
	Total_core_cache_stats_breakdown[L2_WR_ALLOC_R][HIT] = 0
	Total_core_cache_stats_breakdown[L2_WR_ALLOC_R][HIT_RESERVED] = 0
	Total_core_cache_stats_breakdown[L2_WR_ALLOC_R][MISS] = 0
	Total_core_cache_stats_breakdown[L2_WR_ALLOC_R][RESERVATION_FAIL] = 0
	Total_core_cache_stats_breakdown[CONST_ACC_R][TOTAL_ACCESS] = 14336
	Total_core_cache_stats_breakdown[INST_ACC_R][TOTAL_ACCESS] = 22632
Shader 0 warp_id issue ditsribution:
warp_id:
0, 1, 2, 3, 4, 5, 6, 7, 8, 9, 10, 11, 12, 13, 14, 15, 16, 17, 18, 19, 20, 21, 22, 23, 24, 25, 26, 27, 28, 29, 30, 31, 32, 33, 34, 35, 36, 37, 38, 39, 40, 41, 42, 43, 44, 45, 46, 47, 48, 49, 50, 51, 52, 53, 54, 55, 56, 57, 58, 59, 60, 61, 62, 63, 
distro:
46, 46, 45, 46, 45, 46, 45, 46, 46, 46, 46, 46, 46, 46, 46, 46, 46, 46, 46, 46, 46, 46, 46, 46, 46, 46, 46, 46, 46, 46, 46, 46, 46, 46, 46, 46, 46, 46, 46, 46, 46, 46, 46, 46, 46, 46, 46, 46, 23, 23, 23, 23, 23, 23, 23, 23, 23, 23, 23, 23, 23, 23, 23, 23, 
gpgpu_n_tot_thrd_icount = 1317216
gpgpu_n_tot_w_icount = 41163
gpgpu_n_stall_shd_mem = 4886
gpgpu_n_mem_read_local = 0
gpgpu_n_mem_write_local = 0
gpgpu_n_mem_read_global = 2090
gpgpu_n_mem_write_global = 17
gpgpu_n_mem_texture = 0
gpgpu_n_mem_const = 28
gpgpu_n_load_insn  = 65578
gpgpu_n_store_insn = 17
gpgpu_n_shmem_insn = 0
gpgpu_n_tex_insn = 0
gpgpu_n_const_mem_insn = 0
gpgpu_n_param_mem_insn = 458752
gpgpu_n_shmem_bkconflict = 0
gpgpu_n_cache_bkconflict = 0
gpgpu_n_intrawarp_mshr_merge = 0
gpgpu_n_cmem_portconflict = 4886
gpgpu_stall_shd_mem[c_mem][bk_conf] = 4886
gpgpu_stall_shd_mem[c_mem][mshr_rc] = 0
gpgpu_stall_shd_mem[c_mem][icnt_rc] = 0
gpgpu_stall_shd_mem[c_mem][data_port_stall] = 0
gpgpu_stall_shd_mem[t_mem][mshr_rc] = 0
gpgpu_stall_shd_mem[t_mem][icnt_rc] = 0
gpgpu_stall_shd_mem[t_mem][data_port_stall] = 0
gpgpu_stall_shd_mem[s_mem][bk_conf] = 0
gpgpu_stall_shd_mem[gl_mem][bk_conf] = 0
gpgpu_stall_shd_mem[gl_mem][coal_stall] = 0
gpgpu_stall_shd_mem[gl_mem][data_port_stall] = 0
gpgpu_stall_shd_mem[g_mem_ld][mshr_rc] = 0
gpgpu_stall_shd_mem[g_mem_ld][icnt_rc] = 0
gpgpu_stall_shd_mem[g_mem_ld][wb_icnt_rc] = 0
gpgpu_stall_shd_mem[g_mem_ld][wb_rsrv_fail] = 0
gpgpu_stall_shd_mem[g_mem_st][mshr_rc] = 0
gpgpu_stall_shd_mem[g_mem_st][icnt_rc] = 0
gpgpu_stall_shd_mem[g_mem_st][wb_icnt_rc] = 0
gpgpu_stall_shd_mem[g_mem_st][wb_rsrv_fail] = 0
gpgpu_stall_shd_mem[l_mem_ld][mshr_rc] = 0
gpgpu_stall_shd_mem[l_mem_ld][icnt_rc] = 0
gpgpu_stall_shd_mem[l_mem_ld][wb_icnt_rc] = 0
gpgpu_stall_shd_mem[l_mem_ld][wb_rsrv_fail] = 0
gpgpu_stall_shd_mem[l_mem_st][mshr_rc] = 0
gpgpu_stall_shd_mem[l_mem_st][icnt_rc] = 0
gpgpu_stall_shd_mem[l_mem_ld][wb_icnt_rc] = 0
gpgpu_stall_shd_mem[l_mem_ld][wb_rsrv_fail] = 0
gpu_reg_bank_conflict_stalls = 0
Warp Occupancy Distribution:
Stall:15976	W0_Idle:28764	W0_Scoreboard:22775	W1:203	W2:0	W3:0	W4:0	W5:0	W6:0	W7:0	W8:0	W9:0	W10:0	W11:0	W12:0	W13:0	W14:0	W15:0	W16:0	W17:0	W18:0	W19:0	W20:0	W21:0	W22:0	W23:0	W24:0	W25:0	W26:0	W27:0	W28:0	W29:0	W30:0	W31:0	W32:40960
traffic_breakdown_coretomem[CONST_ACC_R] = 224 {8:28,}
traffic_breakdown_coretomem[GLOBAL_ACC_R] = 16720 {8:2090,}
traffic_breakdown_coretomem[GLOBAL_ACC_W] = 680 {40:17,}
traffic_breakdown_coretomem[INST_ACC_R] = 680 {8:85,}
traffic_breakdown_memtocore[CONST_ACC_R] = 2016 {72:28,}
traffic_breakdown_memtocore[GLOBAL_ACC_R] = 83600 {40:2090,}
traffic_breakdown_memtocore[GLOBAL_ACC_W] = 136 {8:17,}
traffic_breakdown_memtocore[INST_ACC_R] = 11560 {136:85,}
maxmrqlatency = 74 
maxdqlatency = 0 
maxmflatency = 401 
averagemflatency = 263 
max_icnt2mem_latency = 107 
max_icnt2sh_latency = 533309 
mrq_lat_table:230 	48 	38 	22 	79 	140 	3 	0 	0 	0 	0 	0 	0 	0 	0 	0 	0 	0 	0 	0 	0 	0 	0 	0 	0 	0 	0 	0 	0 	0 	0 	0 	
dq_lat_table:0 	0 	0 	0 	0 	0 	0 	0 	0 	0 	0 	0 	0 	0 	0 	0 	0 	0 	0 	0 	0 	0 	0 	0 	0 	0 	0 	0 	0 	0 	0 	0 	
mf_lat_table:0 	0 	0 	0 	0 	0 	0 	907 	1228 	0 	0 	0 	0 	0 	0 	0 	0 	0 	0 	0 	0 	0 	0 	0 	0 	0 	0 	0 	0 	0 	0 	0 	
icnt2mem_lat_table:0 	0 	1631 	455 	130 	1 	3 	0 	0 	0 	0 	0 	0 	0 	0 	0 	0 	0 	0 	0 	0 	0 	0 	0 	
icnt2sh_lat_table:0 	0 	360 	387 	1174 	197 	0 	0 	0 	0 	0 	0 	0 	0 	0 	0 	0 	0 	0 	17 	0 	0 	0 	0 	
mf_lat_pw_table:0 	0 	0 	0 	0 	0 	0 	14 	1 	0 	0 	0 	0 	0 	0 	0 	0 	0 	0 	0 	0 	0 	0 	0 	0 	0 	0 	0 	0 	0 	0 	0 	
maximum concurrent accesses to same row:
dram[0]:         0         0         0         0         0         0         0         0         0         0         0         0         0         0         0         0 
dram[1]:         0         0         0         0         0         0         0         0         0         0         0         0         0         0         0         0 
dram[2]:         0         0         0         0         0         0         0         0         0         0         0         0         9         0         0         0 
dram[3]:         0         0         0         0         0         0         0         0         0         0         0         0         0         0         0         0 
dram[4]:         0         0         0         0         0         0         0         0         0         0         0         0         0         0         1         0 
dram[5]:         0         0         0         0         0         0         0         0         0         0         0         0         0         0         1         1 
dram[6]:         0         0         0         0         0         0         0         0         0         0         0         0         0         0         0         0 
dram[7]:         0         0         0         0         0         0         0         0         0         0         0         0         0         0         0         0 
dram[8]:         0         0         0         0         0         0         0         0         0         0         0         0         6         0         0         0 
dram[9]:         0         0         0         0         0         0         0         0         0         0         0         0         0         0         0         0 
dram[10]:         0         0         0         0         0         0         0         0         0         0         0         0         0         0         0         0 
maximum service time to same row:
dram[0]:         0         0         0         0         0         0         0         0         0      5910      1059      1061      1137      1161         0         0 
dram[1]:         0         0         0         0         0         0         0         0         0         0      1063      1067      1126      1161      8180         0 
dram[2]:         0         0         0         0         0         0         0         0         0         0      1063      1064      4014      1159         0         0 
dram[3]:         0         0      2619         0         0         0         0         0         0         0      1066      1070      1129      1149         0      3662 
dram[4]:      7749         0         0         0      4403         0         0         0         0      7413      1047      1049      1127      1165      6450       789 
dram[5]:         0         0         0         0         0         0         0         0         0         0      1051      1056      1126      1165      3499      6112 
dram[6]:         0         0         0      3230         0      2894         0         0         0         0      1058      1060      1073      1078         0         0 
dram[7]:      6247         0         0         0         0         0         0         0         0         0      1053      1054      1082      1086      5924      3648 
dram[8]:         0      3984      4738         0         0         0      8166         0         0         0      1057      1059      1115      1152         0         0 
dram[9]:      2356         0         0         0         0         0         0         0         0         0      1058      1057      1140      1161         0         0 
dram[10]:      5492         0         0         0      2090         0      6664         0         0         0      1061      1063      1120      1142         0         0 
average row accesses per activate:
dram[0]:       inf      -nan      -nan      -nan      -nan      -nan      -nan      -nan      -nan  2.000000 14.000000 14.000000  9.000000  9.000000      -nan      -nan 
dram[1]:      -nan      -nan      -nan      -nan      -nan      -nan      -nan      -nan      -nan      -nan 14.000000 14.000000  9.000000  9.000000  2.000000      -nan 
dram[2]:      -nan      -nan      -nan      -nan      -nan      -nan      -nan      -nan      -nan      -nan 14.000000 14.000000  5.500000  9.000000      -nan      -nan 
dram[3]:      -nan      -nan  1.000000      -nan      -nan      -nan      -nan      -nan      -nan      -nan 14.000000 14.000000  9.000000  9.000000      -nan  2.000000 
dram[4]:  1.000000      -nan      -nan      -nan  2.000000      -nan      -nan      -nan      -nan  2.000000 14.000000 14.000000  9.000000  9.000000  1.500000  1.000000 
dram[5]:      -nan      -nan      -nan      -nan      -nan      -nan      -nan      -nan      -nan      -nan 15.000000 15.000000  9.000000 11.000000  1.500000  1.500000 
dram[6]:      -nan      -nan      -nan  1.000000      -nan  2.000000      -nan      -nan      -nan      -nan 15.000000 15.000000 11.000000  9.000000      -nan      -nan 
dram[7]:  1.000000      -nan      -nan      -nan      -nan      -nan      -nan      -nan      -nan      -nan 15.000000 15.000000  9.000000  9.000000  2.000000  2.000000 
dram[8]:      -nan  2.000000  1.000000      -nan      -nan      -nan  2.000000      -nan      -nan      -nan 15.000000 15.000000  3.000000  8.000000      -nan      -nan 
dram[9]:  1.000000      -nan      -nan      -nan      -nan      -nan      -nan      -nan      -nan      -nan 15.000000 15.000000  8.000000  8.000000      -nan      -nan 
dram[10]:  1.000000      -nan      -nan      -nan  1.000000      -nan  2.000000      -nan      -nan      -nan 15.000000 15.000000  8.000000  8.000000      -nan      -nan 
average row locality = 560/73 = 7.671233
number of total memory accesses made:
dram[0]:         0         0         0         0         0         0         0         0         0         0         0         0         0         0         0         0 
dram[1]:         0         0         0         0         0         0         0         0         0         0         0         0         0         0         0         0 
dram[2]:         0         0         0         0         0         0         0         0         0         0         0         0         0         0         0         0 
dram[3]:         0         0         0         0         0         0         0         0         0         0         0         0         0         0         0         0 
dram[4]:         0         0         0         0         0         0         0         0         0         0         0         0         0         0         0         0 
dram[5]:         0         0         0         0         0         0         0         0         0         0         0         0         0         0         0         0 
dram[6]:         0         0         0         0         0         0         0         0         0         0         0         0         0         0         0         0 
dram[7]:         0         0         0         0         0         0         0         0         0         0         0         0         0         0         0         0 
dram[8]:         0         0         0         0         0         0         0         0         0         0         0         0         0         0         0         0 
dram[9]:         0         0         0         0         0         0         0         0         0         0         0         0         0         0         0         0 
dram[10]:         0         0         0         0         0         0         0         0         0         0         0         0         0         0         0         0 
total accesses: 0
min_bank_accesses = 0!
min_chip_accesses = 0!
number of total read accesses:
dram[0]:         1         0         0         0         0         0         0         0         0         1        14        14         9         9         0         0 
dram[1]:         0         0         0         0         0         0         0         0         0         0        14        14         9         9         1         0 
dram[2]:         0         0         0         0         0         0         0         0         0         0        14        14        10         9         0         0 
dram[3]:         0         0         1         0         0         0         0         0         0         0        14        14         9         9         0         1 
dram[4]:         1         0         0         0         1         0         0         0         0         1        14        14         9         9         2         1 
dram[5]:         0         0         0         0         0         0         0         0         0         0        15        15         9        10         2         2 
dram[6]:         0         0         0         1         0         1         0         0         0         0        15        15        10         9         0         0 
dram[7]:         1         0         0         0         0         0         0         0         0         0        15        15         9         9         1         1 
dram[8]:         0         2         1         0         0         0         1         0         0         0        15        15         9         8         0         0 
dram[9]:         1         0         0         0         0         0         0         0         0         0        15        15         8         8         0         0 
dram[10]:         1         0         0         0         1         0         1         0         0         0        15        15         8         8         0         0 
total reads: 544
min_bank_accesses = 0!
chip skew: 53/47 = 1.13
number of total write accesses:
dram[0]:         0         0         0         0         0         0         0         0         0         1         0         0         0         0         0         0 
dram[1]:         0         0         0         0         0         0         0         0         0         0         0         0         0         0         1         0 
dram[2]:         0         0         0         0         0         0         0         0         0         0         0         0         1         0         0         0 
dram[3]:         0         0         0         0         0         0         0         0         0         0         0         0         0         0         0         1 
dram[4]:         0         0         0         0         1         0         0         0         0         1         0         0         0         0         1         0 
dram[5]:         0         0         0         0         0         0         0         0         0         0         0         0         0         1         1         1 
dram[6]:         0         0         0         0         0         1         0         0         0         0         0         0         1         0         0         0 
dram[7]:         0         0         0         0         0         0         0         0         0         0         0         0         0         0         1         1 
dram[8]:         0         0         0         0         0         0         1         0         0         0         0         0         0         0         0         0 
dram[9]:         0         0         0         0         0         0         0         0         0         0         0         0         0         0         0         0 
dram[10]:         0         0         0         0         0         0         1         0         0         0         0         0         0         0         0         0 
total reads: 16
min_bank_accesses = 0!
min_chip_accesses = 0!
average mf latency per bank:
dram[0]:       6678    none      none      none      none      none      none      none      none         119      1066      1110       975       978    none      none  
dram[1]:     none      none      none      none      none      none      none      none      none      none        1136      1173      1023       963       119    none  
dram[2]:     none      none      none      none      none      none      none      none      none      none        1043      1138       799       941    none      none  
dram[3]:     none      none        1160    none      none      none      none      none      none      none        1131      1198      1028      1035    none         119
dram[4]:        250    none      none      none         119    none      none      none      none         119      1033      1108       949       986        81         0
dram[5]:     none      none      none      none      none      none      none      none      none      none        1066      1129       963       798        81        81
dram[6]:     none      none      none         250    none         119    none      none      none      none        1092      1174       804       915    none      none  
dram[7]:        250    none      none      none      none      none      none      none      none      none        1103      1131       981       932       119       119
dram[8]:     none         247       250    none      none      none         119    none      none      none        1096      1113      1130       958    none      none  
dram[9]:        250    none      none      none      none      none      none      none      none      none        1182      1139      1072      1007    none      none  
dram[10]:        250    none      none      none        1160    none         119    none      none      none        1104      1130       964       984    none      none  
maximum mf latency per bank:
dram[0]:        252         0         0         0         0         0         0         0         0       239       317       353       340       366         0         0
dram[1]:          0         0         0         0         0         0         0         0         0         0       342       353       367       353       239         0
dram[2]:          0         0         0         0         0         0         0         0         0         0       318       357       333       347         0         0
dram[3]:          0         0       250         0         0         0         0         0         0         0       350       388       370       384         0       239
dram[4]:        250         0         0         0       239         0         0         0         0       239       308       343       342       365       245         0
dram[5]:          0         0         0         0         0         0         0         0         0         0       312       339       339       343       245       245
dram[6]:          0         0         0       250         0       239         0         0         0         0       318       351       367       340         0         0
dram[7]:        250         0         0         0         0         0         0         0         0         0       324       347       366       361       239       239
dram[8]:          0       250       250         0         0         0       239         0         0         0       328       343       352       349         0         0
dram[9]:        250         0         0         0         0         0         0         0         0         0       388       377       401       382         0         0
dram[10]:        250         0         0         0       250         0       239         0         0         0       335       349       363       380         0         0
Memory Partition 0: 
Cache L2_bank_000:
MSHR contents

Cache L2_bank_001:
MSHR contents

In Dram Latency Queue (total = 0): 
DRAM[0]: 16 bks, busW=4 BL=8 CL=12, tRRD=2 tCCD=6, tRCD=12 tRAS=28 tRP=12 tRC=40
n_cmd=15212 n_nop=15013 n_act=6 n_pre=0 n_req=49 n_rd=192 n_write=1 bw_util=0.02537
n_activity=512 dram_eff=0.7539
bk0: 4a 15191i bk1: 0a 15210i bk2: 0a 15211i bk3: 0a 15211i bk4: 0a 15214i bk5: 0a 15214i bk6: 0a 15214i bk7: 0a 15214i bk8: 0a 15215i bk9: 4a 15189i bk10: 56a 15091i bk11: 56a 14985i bk12: 36a 15049i bk13: 36a 15042i bk14: 0a 15209i bk15: 0a 15209i 
dram_util_bins: 0 0 0 0 0 0 0 0 0 0
dram_eff_bins: 0 0 0 0 0 0 0 0 0 0
mrqq: max=8 avg=0.0872995
Memory Partition 1: 
Cache L2_bank_002:
MSHR contents
MSHR: tag=0x80215100, atomic=0 1 entries : 0x7fbd1ddfcf80 :  mf: uid= 53284, sid01:w00, part=1, addr=0x80215100, load , size=32, unknown  status = IN_PARTITION_DRAM (533309), 

Cache L2_bank_003:
MSHR contents

In Dram Latency Queue (total = 0): 
DRAM[1]: 16 bks, busW=4 BL=8 CL=12, tRRD=2 tCCD=6, tRCD=12 tRAS=28 tRP=12 tRC=40
n_cmd=15212 n_nop=15019 n_act=5 n_pre=0 n_req=48 n_rd=187 n_write=1 bw_util=0.02472
n_activity=446 dram_eff=0.843
bk0: 0a 15209i bk1: 0a 15210i bk2: 0a 15210i bk3: 0a 15210i bk4: 0a 15210i bk5: 0a 15213i bk6: 0a 15213i bk7: 0a 15214i bk8: 0a 15214i bk9: 0a 15215i bk10: 56a 15094i bk11: 56a 14985i bk12: 36a 15023i bk13: 36a 15040i bk14: 3a 15186i bk15: 0a 15208i 
dram_util_bins: 0 0 0 0 0 0 0 0 0 0
dram_eff_bins: 0 0 0 0 0 0 0 0 0 0
mrqq: max=9 avg=0.0930187
Memory Partition 2: 
Cache L2_bank_004:
MSHR contents

Cache L2_bank_005:
MSHR contents

In Dram Latency Queue (total = 0): 
DRAM[2]: 16 bks, busW=4 BL=8 CL=12, tRRD=2 tCCD=6, tRCD=12 tRAS=28 tRP=12 tRC=40
n_cmd=15212 n_nop=15017 n_act=5 n_pre=1 n_req=48 n_rd=188 n_write=1 bw_util=0.02485
n_activity=480 dram_eff=0.7875
bk0: 0a 15209i bk1: 0a 15210i bk2: 0a 15211i bk3: 0a 15211i bk4: 0a 15211i bk5: 0a 15214i bk6: 0a 15214i bk7: 0a 15214i bk8: 0a 15214i bk9: 0a 15214i bk10: 56a 15087i bk11: 56a 14986i bk12: 40a 15020i bk13: 36a 15032i bk14: 0a 15209i bk15: 0a 15209i 
dram_util_bins: 0 0 0 0 0 0 0 0 0 0
dram_eff_bins: 0 0 0 0 0 0 0 0 0 0
mrqq: max=8 avg=0.0853931
Memory Partition 3: 
Cache L2_bank_006:
MSHR contents

Cache L2_bank_007:
MSHR contents

In Dram Latency Queue (total = 0): 
DRAM[3]: 16 bks, busW=4 BL=8 CL=12, tRRD=2 tCCD=6, tRCD=12 tRAS=28 tRP=12 tRC=40
n_cmd=15212 n_nop=15013 n_act=6 n_pre=0 n_req=49 n_rd=192 n_write=1 bw_util=0.02537
n_activity=502 dram_eff=0.7689
bk0: 0a 15209i bk1: 0a 15211i bk2: 4a 15191i bk3: 0a 15210i bk4: 0a 15211i bk5: 0a 15212i bk6: 0a 15212i bk7: 0a 15212i bk8: 0a 15213i bk9: 0a 15215i bk10: 56a 15092i bk11: 56a 14984i bk12: 36a 15023i bk13: 36a 15011i bk14: 0a 15211i bk15: 4a 15185i 
dram_util_bins: 0 0 0 0 0 0 0 0 0 0
dram_eff_bins: 0 0 0 0 0 0 0 0 0 0
mrqq: max=10 avg=0.101499
Memory Partition 4: 
Cache L2_bank_008:
MSHR contents

Cache L2_bank_009:
MSHR contents

In Dram Latency Queue (total = 0): 
DRAM[4]: 16 bks, busW=4 BL=8 CL=12, tRRD=2 tCCD=6, tRCD=12 tRAS=28 tRP=12 tRC=40
n_cmd=15212 n_nop=14990 n_act=10 n_pre=1 n_req=55 n_rd=208 n_write=3 bw_util=0.02774
n_activity=712 dram_eff=0.5927
bk0: 4a 15188i bk1: 0a 15209i bk2: 0a 15209i bk3: 0a 15211i bk4: 4a 15185i bk5: 0a 15210i bk6: 0a 15213i bk7: 0a 15216i bk8: 0a 15216i bk9: 4a 15190i bk10: 56a 15095i bk11: 56a 14995i bk12: 36a 15036i bk13: 36a 15056i bk14: 8a 15153i bk15: 4a 15189i 
dram_util_bins: 0 0 0 0 0 0 0 0 0 0
dram_eff_bins: 0 0 0 0 0 0 0 0 0 0
mrqq: max=8 avg=0.0719169
Memory Partition 5: 
Cache L2_bank_010:
MSHR contents

Cache L2_bank_011:
MSHR contents

In Dram Latency Queue (total = 0): 
DRAM[5]: 16 bks, busW=4 BL=8 CL=12, tRRD=2 tCCD=6, tRCD=12 tRAS=28 tRP=12 tRC=40
n_cmd=15212 n_nop=14987 n_act=8 n_pre=2 n_req=56 n_rd=212 n_write=3 bw_util=0.02827
n_activity=679 dram_eff=0.6333
bk0: 0a 15206i bk1: 0a 15209i bk2: 0a 15209i bk3: 0a 15210i bk4: 0a 15210i bk5: 0a 15212i bk6: 0a 15213i bk7: 0a 15214i bk8: 0a 15215i bk9: 0a 15215i bk10: 60a 15085i bk11: 60a 14969i bk12: 36a 15030i bk13: 40a 15040i bk14: 8a 15155i bk15: 8a 15152i 
dram_util_bins: 0 0 0 0 0 0 0 0 0 0
dram_eff_bins: 0 0 0 0 0 0 0 0 0 0
mrqq: max=9 avg=0.101302
Memory Partition 6: 
Cache L2_bank_012:
MSHR contents

Cache L2_bank_013:
MSHR contents

In Dram Latency Queue (total = 0): 
DRAM[6]: 16 bks, busW=4 BL=8 CL=12, tRRD=2 tCCD=6, tRCD=12 tRAS=28 tRP=12 tRC=40
n_cmd=15212 n_nop=15000 n_act=6 n_pre=0 n_req=53 n_rd=204 n_write=2 bw_util=0.02708
n_activity=591 dram_eff=0.6971
bk0: 0a 15212i bk1: 0a 15213i bk2: 0a 15213i bk3: 4a 15193i bk4: 0a 15212i bk5: 4a 15187i bk6: 0a 15211i bk7: 0a 15211i bk8: 0a 15212i bk9: 0a 15212i bk10: 60a 15064i bk11: 60a 14949i bk12: 40a 14891i bk13: 36a 14922i bk14: 0a 15210i bk15: 0a 15212i 
dram_util_bins: 0 0 0 0 0 0 0 0 0 0
dram_eff_bins: 0 0 0 0 0 0 0 0 0 0
mrqq: max=10 avg=0.113529
Memory Partition 7: 
Cache L2_bank_014:
MSHR contents

Cache L2_bank_015:
MSHR contents

In Dram Latency Queue (total = 0): 
DRAM[7]: 16 bks, busW=4 BL=8 CL=12, tRRD=2 tCCD=6, tRCD=12 tRAS=28 tRP=12 tRC=40
n_cmd=15212 n_nop=14999 n_act=7 n_pre=0 n_req=53 n_rd=204 n_write=2 bw_util=0.02708
n_activity=586 dram_eff=0.7031
bk0: 4a 15189i bk1: 0a 15210i bk2: 0a 15211i bk3: 0a 15211i bk4: 0a 15211i bk5: 0a 15212i bk6: 0a 15213i bk7: 0a 15213i bk8: 0a 15213i bk9: 0a 15214i bk10: 60a 15070i bk11: 60a 14947i bk12: 36a 14939i bk13: 36a 14905i bk14: 4a 15185i bk15: 4a 15184i 
dram_util_bins: 0 0 0 0 0 0 0 0 0 0
dram_eff_bins: 0 0 0 0 0 0 0 0 0 0
mrqq: max=12 avg=0.107547
Memory Partition 8: 
Cache L2_bank_016:
MSHR contents

Cache L2_bank_017:
MSHR contents

In Dram Latency Queue (total = 0): 
DRAM[8]: 16 bks, busW=4 BL=8 CL=12, tRRD=2 tCCD=6, tRCD=12 tRAS=28 tRP=12 tRC=40
n_cmd=15212 n_nop=14996 n_act=9 n_pre=2 n_req=52 n_rd=204 n_write=1 bw_util=0.02695
n_activity=643 dram_eff=0.6376
bk0: 0a 15208i bk1: 8a 15183i bk2: 4a 15191i bk3: 0a 15211i bk4: 0a 15211i bk5: 0a 15213i bk6: 4a 15189i bk7: 0a 15213i bk8: 0a 15215i bk9: 0a 15216i bk10: 60a 15088i bk11: 60a 14966i bk12: 36a 14951i bk13: 32a 15024i bk14: 0a 15208i bk15: 0a 15208i 
dram_util_bins: 0 0 0 0 0 0 0 0 0 0
dram_eff_bins: 0 0 0 0 0 0 0 0 0 0
mrqq: max=9 avg=0.108336
Memory Partition 9: 
Cache L2_bank_018:
MSHR contents

Cache L2_bank_019:
MSHR contents

In Dram Latency Queue (total = 0): 
DRAM[9]: 16 bks, busW=4 BL=8 CL=12, tRRD=2 tCCD=6, tRCD=12 tRAS=28 tRP=12 tRC=40
n_cmd=15212 n_nop=15019 n_act=5 n_pre=0 n_req=47 n_rd=188 n_write=0 bw_util=0.02472
n_activity=480 dram_eff=0.7833
bk0: 4a 15191i bk1: 0a 15210i bk2: 0a 15211i bk3: 0a 15212i bk4: 0a 15212i bk5: 0a 15212i bk6: 0a 15212i bk7: 0a 15213i bk8: 0a 15213i bk9: 0a 15214i bk10: 60a 15069i bk11: 60a 14980i bk12: 32a 15052i bk13: 32a 15048i bk14: 0a 15210i bk15: 0a 15211i 
dram_util_bins: 0 0 0 0 0 0 0 0 0 0
dram_eff_bins: 0 0 0 0 0 0 0 0 0 0
mrqq: max=8 avg=0.0792138
Memory Partition 10: 
Cache L2_bank_020:
MSHR contents

Cache L2_bank_021:
MSHR contents

In Dram Latency Queue (total = 0): 
DRAM[10]: 16 bks, busW=4 BL=8 CL=12, tRRD=2 tCCD=6, tRCD=12 tRAS=28 tRP=12 tRC=40
n_cmd=15212 n_nop=15008 n_act=7 n_pre=0 n_req=50 n_rd=196 n_write=1 bw_util=0.0259
n_activity=560 dram_eff=0.7036
bk0: 4a 15190i bk1: 0a 15209i bk2: 0a 15212i bk3: 0a 15212i bk4: 4a 15193i bk5: 0a 15212i bk6: 4a 15187i bk7: 0a 15211i bk8: 0a 15214i bk9: 0a 15214i bk10: 60a 15083i bk11: 60a 14962i bk12: 32a 15001i bk13: 32a 15006i bk14: 0a 15210i bk15: 0a 15210i 
dram_util_bins: 0 0 0 0 0 0 0 0 0 0
dram_eff_bins: 0 0 0 0 0 0 0 0 0 0
mrqq: max=10 avg=0.102288

========= L2 cache stats =========
L2_cache_bank[0]: Access = 120, Miss = 24, Miss_rate = 0.200, Pending_hits = 82, Reservation_fails = 0
L2_cache_bank[1]: Access = 93, Miss = 24, Miss_rate = 0.258, Pending_hits = 61, Reservation_fails = 0
L2_cache_bank[2]: Access = 93, Miss = 24, Miss_rate = 0.258, Pending_hits = 48, Reservation_fails = 0
L2_cache_bank[3]: Access = 92, Miss = 23, Miss_rate = 0.250, Pending_hits = 54, Reservation_fails = 0
L2_cache_bank[4]: Access = 93, Miss = 24, Miss_rate = 0.258, Pending_hits = 56, Reservation_fails = 0
L2_cache_bank[5]: Access = 92, Miss = 23, Miss_rate = 0.250, Pending_hits = 56, Reservation_fails = 0
L2_cache_bank[6]: Access = 100, Miss = 24, Miss_rate = 0.240, Pending_hits = 51, Reservation_fails = 0
L2_cache_bank[7]: Access = 93, Miss = 24, Miss_rate = 0.258, Pending_hits = 57, Reservation_fails = 0
L2_cache_bank[8]: Access = 123, Miss = 27, Miss_rate = 0.220, Pending_hits = 83, Reservation_fails = 0
L2_cache_bank[9]: Access = 121, Miss = 25, Miss_rate = 0.207, Pending_hits = 83, Reservation_fails = 0
L2_cache_bank[10]: Access = 99, Miss = 26, Miss_rate = 0.263, Pending_hits = 60, Reservation_fails = 0
L2_cache_bank[11]: Access = 126, Miss = 27, Miss_rate = 0.214, Pending_hits = 89, Reservation_fails = 0
L2_cache_bank[12]: Access = 97, Miss = 25, Miss_rate = 0.258, Pending_hits = 58, Reservation_fails = 0
L2_cache_bank[13]: Access = 98, Miss = 26, Miss_rate = 0.265, Pending_hits = 63, Reservation_fails = 0
L2_cache_bank[14]: Access = 98, Miss = 26, Miss_rate = 0.265, Pending_hits = 49, Reservation_fails = 0
L2_cache_bank[15]: Access = 97, Miss = 25, Miss_rate = 0.258, Pending_hits = 64, Reservation_fails = 0
L2_cache_bank[16]: Access = 112, Miss = 26, Miss_rate = 0.232, Pending_hits = 48, Reservation_fails = 0
L2_cache_bank[17]: Access = 94, Miss = 25, Miss_rate = 0.266, Pending_hits = 54, Reservation_fails = 0
L2_cache_bank[18]: Access = 93, Miss = 24, Miss_rate = 0.258, Pending_hits = 52, Reservation_fails = 0
L2_cache_bank[19]: Access = 92, Miss = 23, Miss_rate = 0.250, Pending_hits = 56, Reservation_fails = 0
L2_cache_bank[20]: Access = 102, Miss = 26, Miss_rate = 0.255, Pending_hits = 50, Reservation_fails = 0
L2_cache_bank[21]: Access = 92, Miss = 23, Miss_rate = 0.250, Pending_hits = 60, Reservation_fails = 0
L2_total_cache_accesses = 2220
L2_total_cache_misses = 544
L2_total_cache_miss_rate = 0.2450
L2_total_cache_pending_hits = 1334
L2_total_cache_reservation_fails = 0
L2_total_cache_breakdown:
	L2_cache_stats_breakdown[GLOBAL_ACC_R][HIT] = 339
	L2_cache_stats_breakdown[GLOBAL_ACC_R][HIT_RESERVED] = 1228
	L2_cache_stats_breakdown[GLOBAL_ACC_R][MISS] = 523
	L2_cache_stats_breakdown[GLOBAL_ACC_R][RESERVATION_FAIL] = 0
	L2_cache_stats_breakdown[LOCAL_ACC_R][HIT] = 0
	L2_cache_stats_breakdown[LOCAL_ACC_R][HIT_RESERVED] = 0
	L2_cache_stats_breakdown[LOCAL_ACC_R][MISS] = 0
	L2_cache_stats_breakdown[LOCAL_ACC_R][RESERVATION_FAIL] = 0
	L2_cache_stats_breakdown[CONST_ACC_R][HIT] = 0
	L2_cache_stats_breakdown[CONST_ACC_R][HIT_RESERVED] = 27
	L2_cache_stats_breakdown[CONST_ACC_R][MISS] = 1
	L2_cache_stats_breakdown[CONST_ACC_R][RESERVATION_FAIL] = 0
	L2_cache_stats_breakdown[TEXTURE_ACC_R][HIT] = 0
	L2_cache_stats_breakdown[TEXTURE_ACC_R][HIT_RESERVED] = 0
	L2_cache_stats_breakdown[TEXTURE_ACC_R][MISS] = 0
	L2_cache_stats_breakdown[TEXTURE_ACC_R][RESERVATION_FAIL] = 0
	L2_cache_stats_breakdown[GLOBAL_ACC_W][HIT] = 1
	L2_cache_stats_breakdown[GLOBAL_ACC_W][HIT_RESERVED] = 0
	L2_cache_stats_breakdown[GLOBAL_ACC_W][MISS] = 16
	L2_cache_stats_breakdown[GLOBAL_ACC_W][RESERVATION_FAIL] = 0
	L2_cache_stats_breakdown[LOCAL_ACC_W][HIT] = 0
	L2_cache_stats_breakdown[LOCAL_ACC_W][HIT_RESERVED] = 0
	L2_cache_stats_breakdown[LOCAL_ACC_W][MISS] = 0
	L2_cache_stats_breakdown[LOCAL_ACC_W][RESERVATION_FAIL] = 0
	L2_cache_stats_breakdown[L1_WRBK_ACC][HIT] = 0
	L2_cache_stats_breakdown[L1_WRBK_ACC][HIT_RESERVED] = 0
	L2_cache_stats_breakdown[L1_WRBK_ACC][MISS] = 0
	L2_cache_stats_breakdown[L1_WRBK_ACC][RESERVATION_FAIL] = 0
	L2_cache_stats_breakdown[L2_WRBK_ACC][HIT] = 0
	L2_cache_stats_breakdown[L2_WRBK_ACC][HIT_RESERVED] = 0
	L2_cache_stats_breakdown[L2_WRBK_ACC][MISS] = 0
	L2_cache_stats_breakdown[L2_WRBK_ACC][RESERVATION_FAIL] = 0
	L2_cache_stats_breakdown[INST_ACC_R][HIT] = 2
	L2_cache_stats_breakdown[INST_ACC_R][HIT_RESERVED] = 79
	L2_cache_stats_breakdown[INST_ACC_R][MISS] = 4
	L2_cache_stats_breakdown[INST_ACC_R][RESERVATION_FAIL] = 0
	L2_cache_stats_breakdown[L1_WR_ALLOC_R][HIT] = 0
	L2_cache_stats_breakdown[L1_WR_ALLOC_R][HIT_RESERVED] = 0
	L2_cache_stats_breakdown[L1_WR_ALLOC_R][MISS] = 0
	L2_cache_stats_breakdown[L1_WR_ALLOC_R][RESERVATION_FAIL] = 0
	L2_cache_stats_breakdown[L2_WR_ALLOC_R][HIT] = 0
	L2_cache_stats_breakdown[L2_WR_ALLOC_R][HIT_RESERVED] = 0
	L2_cache_stats_breakdown[L2_WR_ALLOC_R][MISS] = 0
	L2_cache_stats_breakdown[L2_WR_ALLOC_R][RESERVATION_FAIL] = 0
	L2_cache_stats_breakdown[GLOBAL_ACC_R][TOTAL_ACCESS] = 2090
	L2_cache_stats_breakdown[CONST_ACC_R][TOTAL_ACCESS] = 28
	L2_cache_stats_breakdown[GLOBAL_ACC_W][TOTAL_ACCESS] = 17
	L2_cache_stats_breakdown[INST_ACC_R][TOTAL_ACCESS] = 85
L2_cache_data_port_util = 0.002
L2_cache_fill_port_util = 0.012

icnt_total_pkts_mem_to_simt=4706
icnt_total_pkts_simt_to_mem=2237
LD_mem_lat_dist  0 0 0 0 0 0 0 0 0 0 0 0 0 0 0 0 0 0 0 0 0 0 0 0 0 0 0
ST_mem_lat_dist  0 0 0 0 0 0 0 0 0 0 0 0 0 0 0 0 0 0 0 0 0 0 0 0 0 0 0
----------------------------Interconnect-DETAILS--------------------------------
Class 0:
Packet latency average = 23.3155
	minimum = 6
	maximum = 94
Network latency average = 15.6757
	minimum = 6
	maximum = 65
Slowest packet = 27
Flit latency average = 16.3614
	minimum = 6
	maximum = 64
Slowest flit = 4879
Fragmentation average = 0
	minimum = 0
	maximum = 0
Injected packet rate average = 0.00541959
	minimum = 0.00415014 (at node 7)
	maximum = 0.00878853 (at node 1)
Accepted packet rate average = 0.00541959
	minimum = 0.00415014 (at node 7)
	maximum = 0.00878853 (at node 1)
Injected flit rate average = 0.00847482
	minimum = 0.00415014 (at node 7)
	maximum = 0.0203845 (at node 39)
Accepted flit rate average= 0.00847482
	minimum = 0.00561489 (at node 31)
	maximum = 0.0173329 (at node 1)
Injected packet length average = 1.56374
Accepted packet length average = 1.56374
Total in-flight flits = 0 (0 measured)
====== Overall Traffic Statistics ======
====== Traffic class 0 ======
Packet latency average = 23.3155 (1 samples)
	minimum = 6 (1 samples)
	maximum = 94 (1 samples)
Network latency average = 15.6757 (1 samples)
	minimum = 6 (1 samples)
	maximum = 65 (1 samples)
Flit latency average = 16.3614 (1 samples)
	minimum = 6 (1 samples)
	maximum = 64 (1 samples)
Fragmentation average = 0 (1 samples)
	minimum = 0 (1 samples)
	maximum = 0 (1 samples)
Injected packet rate average = 0.00541959 (1 samples)
	minimum = 0.00415014 (1 samples)
	maximum = 0.00878853 (1 samples)
Accepted packet rate average = 0.00541959 (1 samples)
	minimum = 0.00415014 (1 samples)
	maximum = 0.00878853 (1 samples)
Injected flit rate average = 0.00847482 (1 samples)
	minimum = 0.00415014 (1 samples)
	maximum = 0.0203845 (1 samples)
Accepted flit rate average = 0.00847482 (1 samples)
	minimum = 0.00561489 (1 samples)
	maximum = 0.0173329 (1 samples)
Injected packet size average = 1.56374 (1 samples)
Accepted packet size average = 1.56374 (1 samples)
Hops average = 1 (1 samples)
----------------------------END-of-Interconnect-DETAILS-------------------------


gpgpu_simulation_time = 0 days, 0 hrs, 0 min, 22 sec (22 sec)
gpgpu_simulation_rate = 56608 (inst/sec)
gpgpu_simulation_rate = 24241 (cycle/sec)

GPGPU-Sim PTX: cudaLaunch for 0x0x401827 (mode=performance simulation) on stream 0
GPGPU-Sim PTX: pushing kernel '_Z7Kernel2PbS_S_S_i' to stream 0, gridDim= (128,1,1) blockDim = (512,1,1) 
GPGPU-Sim uArch: Shader 5 bind to kernel 2 '_Z7Kernel2PbS_S_S_i'
GPGPU-Sim uArch: CTA/core = 4, limited by: threads
GPGPU-Sim uArch: Shader 6 bind to kernel 2 '_Z7Kernel2PbS_S_S_i'
GPGPU-Sim uArch: Shader 7 bind to kernel 2 '_Z7Kernel2PbS_S_S_i'
GPGPU-Sim uArch: Shader 8 bind to kernel 2 '_Z7Kernel2PbS_S_S_i'
GPGPU-Sim uArch: Shader 9 bind to kernel 2 '_Z7Kernel2PbS_S_S_i'
GPGPU-Sim uArch: Shader 10 bind to kernel 2 '_Z7Kernel2PbS_S_S_i'
GPGPU-Sim uArch: Shader 11 bind to kernel 2 '_Z7Kernel2PbS_S_S_i'
GPGPU-Sim uArch: Shader 12 bind to kernel 2 '_Z7Kernel2PbS_S_S_i'
GPGPU-Sim uArch: Shader 13 bind to kernel 2 '_Z7Kernel2PbS_S_S_i'
GPGPU-Sim uArch: Shader 14 bind to kernel 2 '_Z7Kernel2PbS_S_S_i'
GPGPU-Sim uArch: Shader 15 bind to kernel 2 '_Z7Kernel2PbS_S_S_i'
GPGPU-Sim uArch: Shader 16 bind to kernel 2 '_Z7Kernel2PbS_S_S_i'
GPGPU-Sim uArch: Shader 17 bind to kernel 2 '_Z7Kernel2PbS_S_S_i'
GPGPU-Sim uArch: Shader 18 bind to kernel 2 '_Z7Kernel2PbS_S_S_i'
GPGPU-Sim uArch: Shader 19 bind to kernel 2 '_Z7Kernel2PbS_S_S_i'
GPGPU-Sim uArch: Shader 20 bind to kernel 2 '_Z7Kernel2PbS_S_S_i'
GPGPU-Sim uArch: Shader 21 bind to kernel 2 '_Z7Kernel2PbS_S_S_i'
GPGPU-Sim uArch: Shader 22 bind to kernel 2 '_Z7Kernel2PbS_S_S_i'
GPGPU-Sim uArch: Shader 23 bind to kernel 2 '_Z7Kernel2PbS_S_S_i'
GPGPU-Sim uArch: Shader 24 bind to kernel 2 '_Z7Kernel2PbS_S_S_i'
GPGPU-Sim uArch: Shader 25 bind to kernel 2 '_Z7Kernel2PbS_S_S_i'
GPGPU-Sim uArch: Shader 26 bind to kernel 2 '_Z7Kernel2PbS_S_S_i'
GPGPU-Sim uArch: Shader 27 bind to kernel 2 '_Z7Kernel2PbS_S_S_i'
GPGPU-Sim uArch: Shader 0 bind to kernel 2 '_Z7Kernel2PbS_S_S_i'
GPGPU-Sim uArch: Shader 1 bind to kernel 2 '_Z7Kernel2PbS_S_S_i'
GPGPU-Sim uArch: Shader 2 bind to kernel 2 '_Z7Kernel2PbS_S_S_i'
GPGPU-Sim uArch: Shader 3 bind to kernel 2 '_Z7Kernel2PbS_S_S_i'
GPGPU-Sim uArch: Shader 4 bind to kernel 2 '_Z7Kernel2PbS_S_S_i'
Destroy streams for kernel 2: size 0
kernel_name = _Z7Kernel2PbS_S_S_i 
kernel_launch_uid = 2 
gpu_sim_cycle = 1855
gpu_sim_insn = 1114192
gpu_ipc =     600.6426
gpu_tot_sim_cycle = 757315
gpu_tot_sim_insn = 2359568
gpu_tot_ipc =       3.1157
gpu_tot_issued_cta = 256
max_total_param_size = 0
gpu_stall_dramfull = 956
gpu_stall_icnt2sh    = 11582
partiton_reqs_in_parallel = 40507
partiton_reqs_in_parallel_total    = 179593
partiton_level_parallism =      21.8367
partiton_level_parallism_total  =       0.2906
partiton_reqs_in_parallel_util = 40507
partiton_reqs_in_parallel_util_total    = 179593
gpu_sim_cycle_parition_util = 1855
gpu_tot_sim_cycle_parition_util    = 8193
partiton_level_parallism_util =      21.8367
partiton_level_parallism_util_total  =      21.9049
partiton_replys_in_parallel = 2136
partiton_replys_in_parallel_total    = 2220
L2_BW  =     109.1421 GB/Sec
L2_BW_total  =       0.5452 GB/Sec
gpu_total_sim_rate=50203

========= Core cache stats =========
L1I_cache:
	L1I_total_cache_accesses = 43152
	L1I_total_cache_misses = 6299
	L1I_total_cache_miss_rate = 0.1460
	L1I_total_cache_pending_hits = 0
	L1I_total_cache_reservation_fails = 18791
L1D_cache:
	L1D_cache_core[0]: Access = 0, Miss = 0, Miss_rate = -nan, Pending_hits = 0, Reservation_fails = 0
	L1D_cache_core[1]: Access = 0, Miss = 0, Miss_rate = -nan, Pending_hits = 0, Reservation_fails = 0
	L1D_cache_core[2]: Access = 0, Miss = 0, Miss_rate = -nan, Pending_hits = 0, Reservation_fails = 0
	L1D_cache_core[3]: Access = 0, Miss = 0, Miss_rate = -nan, Pending_hits = 0, Reservation_fails = 0
	L1D_cache_core[4]: Access = 0, Miss = 0, Miss_rate = -nan, Pending_hits = 0, Reservation_fails = 0
	L1D_cache_core[5]: Access = 0, Miss = 0, Miss_rate = -nan, Pending_hits = 0, Reservation_fails = 0
	L1D_cache_core[6]: Access = 0, Miss = 0, Miss_rate = -nan, Pending_hits = 0, Reservation_fails = 0
	L1D_cache_core[7]: Access = 0, Miss = 0, Miss_rate = -nan, Pending_hits = 0, Reservation_fails = 0
	L1D_cache_core[8]: Access = 0, Miss = 0, Miss_rate = -nan, Pending_hits = 0, Reservation_fails = 0
	L1D_cache_core[9]: Access = 0, Miss = 0, Miss_rate = -nan, Pending_hits = 0, Reservation_fails = 0
	L1D_cache_core[10]: Access = 0, Miss = 0, Miss_rate = -nan, Pending_hits = 0, Reservation_fails = 0
	L1D_cache_core[11]: Access = 0, Miss = 0, Miss_rate = -nan, Pending_hits = 0, Reservation_fails = 0
	L1D_cache_core[12]: Access = 0, Miss = 0, Miss_rate = -nan, Pending_hits = 0, Reservation_fails = 0
	L1D_cache_core[13]: Access = 0, Miss = 0, Miss_rate = -nan, Pending_hits = 0, Reservation_fails = 0
	L1D_cache_core[14]: Access = 0, Miss = 0, Miss_rate = -nan, Pending_hits = 0, Reservation_fails = 0
	L1D_cache_core[15]: Access = 0, Miss = 0, Miss_rate = -nan, Pending_hits = 0, Reservation_fails = 0
	L1D_cache_core[16]: Access = 0, Miss = 0, Miss_rate = -nan, Pending_hits = 0, Reservation_fails = 0
	L1D_cache_core[17]: Access = 0, Miss = 0, Miss_rate = -nan, Pending_hits = 0, Reservation_fails = 0
	L1D_cache_core[18]: Access = 0, Miss = 0, Miss_rate = -nan, Pending_hits = 0, Reservation_fails = 0
	L1D_cache_core[19]: Access = 0, Miss = 0, Miss_rate = -nan, Pending_hits = 0, Reservation_fails = 0
	L1D_cache_core[20]: Access = 0, Miss = 0, Miss_rate = -nan, Pending_hits = 0, Reservation_fails = 0
	L1D_cache_core[21]: Access = 0, Miss = 0, Miss_rate = -nan, Pending_hits = 0, Reservation_fails = 0
	L1D_cache_core[22]: Access = 0, Miss = 0, Miss_rate = -nan, Pending_hits = 0, Reservation_fails = 0
	L1D_cache_core[23]: Access = 0, Miss = 0, Miss_rate = -nan, Pending_hits = 0, Reservation_fails = 0
	L1D_cache_core[24]: Access = 0, Miss = 0, Miss_rate = -nan, Pending_hits = 0, Reservation_fails = 0
	L1D_cache_core[25]: Access = 0, Miss = 0, Miss_rate = -nan, Pending_hits = 0, Reservation_fails = 0
	L1D_cache_core[26]: Access = 0, Miss = 0, Miss_rate = -nan, Pending_hits = 0, Reservation_fails = 0
	L1D_cache_core[27]: Access = 0, Miss = 0, Miss_rate = -nan, Pending_hits = 0, Reservation_fails = 0
	L1D_total_cache_accesses = 0
	L1D_total_cache_misses = 0
	L1D_total_cache_pending_hits = 0
	L1D_total_cache_reservation_fails = 0
	L1D_cache_data_port_util = 0.000
	L1D_cache_fill_port_util = 0.000
L1C_cache:
	L1C_total_cache_accesses = 24576
	L1C_total_cache_misses = 1792
	L1C_total_cache_miss_rate = 0.0729
	L1C_total_cache_pending_hits = 0
	L1C_total_cache_reservation_fails = 4886
L1T_cache:
	L1T_total_cache_accesses = 0
	L1T_total_cache_misses = 0
	L1T_total_cache_pending_hits = 0
	L1T_total_cache_reservation_fails = 0

Total_core_cache_stats:
	Total_core_cache_stats_breakdown[GLOBAL_ACC_R][HIT] = 0
	Total_core_cache_stats_breakdown[GLOBAL_ACC_R][HIT_RESERVED] = 0
	Total_core_cache_stats_breakdown[GLOBAL_ACC_R][MISS] = 0
	Total_core_cache_stats_breakdown[GLOBAL_ACC_R][RESERVATION_FAIL] = 0
	Total_core_cache_stats_breakdown[LOCAL_ACC_R][HIT] = 0
	Total_core_cache_stats_breakdown[LOCAL_ACC_R][HIT_RESERVED] = 0
	Total_core_cache_stats_breakdown[LOCAL_ACC_R][MISS] = 0
	Total_core_cache_stats_breakdown[LOCAL_ACC_R][RESERVATION_FAIL] = 0
	Total_core_cache_stats_breakdown[CONST_ACC_R][HIT] = 22784
	Total_core_cache_stats_breakdown[CONST_ACC_R][HIT_RESERVED] = 0
	Total_core_cache_stats_breakdown[CONST_ACC_R][MISS] = 1792
	Total_core_cache_stats_breakdown[CONST_ACC_R][RESERVATION_FAIL] = 4886
	Total_core_cache_stats_breakdown[TEXTURE_ACC_R][HIT] = 0
	Total_core_cache_stats_breakdown[TEXTURE_ACC_R][HIT_RESERVED] = 0
	Total_core_cache_stats_breakdown[TEXTURE_ACC_R][MISS] = 0
	Total_core_cache_stats_breakdown[TEXTURE_ACC_R][RESERVATION_FAIL] = 0
	Total_core_cache_stats_breakdown[GLOBAL_ACC_W][HIT] = 0
	Total_core_cache_stats_breakdown[GLOBAL_ACC_W][HIT_RESERVED] = 0
	Total_core_cache_stats_breakdown[GLOBAL_ACC_W][MISS] = 0
	Total_core_cache_stats_breakdown[GLOBAL_ACC_W][RESERVATION_FAIL] = 0
	Total_core_cache_stats_breakdown[LOCAL_ACC_W][HIT] = 0
	Total_core_cache_stats_breakdown[LOCAL_ACC_W][HIT_RESERVED] = 0
	Total_core_cache_stats_breakdown[LOCAL_ACC_W][MISS] = 0
	Total_core_cache_stats_breakdown[LOCAL_ACC_W][RESERVATION_FAIL] = 0
	Total_core_cache_stats_breakdown[L1_WRBK_ACC][HIT] = 0
	Total_core_cache_stats_breakdown[L1_WRBK_ACC][HIT_RESERVED] = 0
	Total_core_cache_stats_breakdown[L1_WRBK_ACC][MISS] = 0
	Total_core_cache_stats_breakdown[L1_WRBK_ACC][RESERVATION_FAIL] = 0
	Total_core_cache_stats_breakdown[L2_WRBK_ACC][HIT] = 0
	Total_core_cache_stats_breakdown[L2_WRBK_ACC][HIT_RESERVED] = 0
	Total_core_cache_stats_breakdown[L2_WRBK_ACC][MISS] = 0
	Total_core_cache_stats_breakdown[L2_WRBK_ACC][RESERVATION_FAIL] = 0
	Total_core_cache_stats_breakdown[INST_ACC_R][HIT] = 36853
	Total_core_cache_stats_breakdown[INST_ACC_R][HIT_RESERVED] = 0
	Total_core_cache_stats_breakdown[INST_ACC_R][MISS] = 6299
	Total_core_cache_stats_breakdown[INST_ACC_R][RESERVATION_FAIL] = 18791
	Total_core_cache_stats_breakdown[L1_WR_ALLOC_R][HIT] = 0
	Total_core_cache_stats_breakdown[L1_WR_ALLOC_R][HIT_RESERVED] = 0
	Total_core_cache_stats_breakdown[L1_WR_ALLOC_R][MISS] = 0
	Total_core_cache_stats_breakdown[L1_WR_ALLOC_R][RESERVATION_FAIL] = 0
	Total_core_cache_stats_breakdown[L2_WR_ALLOC_R][HIT] = 0
	Total_core_cache_stats_breakdown[L2_WR_ALLOC_R][HIT_RESERVED] = 0
	Total_core_cache_stats_breakdown[L2_WR_ALLOC_R][MISS] = 0
	Total_core_cache_stats_breakdown[L2_WR_ALLOC_R][RESERVATION_FAIL] = 0
	Total_core_cache_stats_breakdown[CONST_ACC_R][TOTAL_ACCESS] = 24576
	Total_core_cache_stats_breakdown[INST_ACC_R][TOTAL_ACCESS] = 43152
Shader 0 warp_id issue ditsribution:
warp_id:
0, 1, 2, 3, 4, 5, 6, 7, 8, 9, 10, 11, 12, 13, 14, 15, 16, 17, 18, 19, 20, 21, 22, 23, 24, 25, 26, 27, 28, 29, 30, 31, 32, 33, 34, 35, 36, 37, 38, 39, 40, 41, 42, 43, 44, 45, 46, 47, 48, 49, 50, 51, 52, 53, 54, 55, 56, 57, 58, 59, 60, 61, 62, 63, 
distro:
67, 67, 66, 67, 66, 67, 66, 67, 67, 67, 67, 67, 67, 67, 67, 67, 67, 67, 67, 67, 67, 67, 67, 67, 67, 67, 67, 67, 67, 67, 67, 67, 67, 67, 67, 67, 67, 67, 67, 67, 67, 67, 67, 67, 67, 67, 67, 67, 44, 44, 44, 44, 44, 44, 44, 44, 44, 44, 44, 44, 44, 44, 44, 44, 
gpgpu_n_tot_thrd_icount = 2499680
gpgpu_n_tot_w_icount = 78115
gpgpu_n_stall_shd_mem = 4886
gpgpu_n_mem_read_local = 0
gpgpu_n_mem_write_local = 0
gpgpu_n_mem_read_global = 4138
gpgpu_n_mem_write_global = 49
gpgpu_n_mem_texture = 0
gpgpu_n_mem_const = 28
gpgpu_n_load_insn  = 131114
gpgpu_n_store_insn = 49
gpgpu_n_shmem_insn = 0
gpgpu_n_tex_insn = 0
gpgpu_n_const_mem_insn = 0
gpgpu_n_param_mem_insn = 786432
gpgpu_n_shmem_bkconflict = 0
gpgpu_n_cache_bkconflict = 0
gpgpu_n_intrawarp_mshr_merge = 0
gpgpu_n_cmem_portconflict = 4886
gpgpu_stall_shd_mem[c_mem][bk_conf] = 4886
gpgpu_stall_shd_mem[c_mem][mshr_rc] = 0
gpgpu_stall_shd_mem[c_mem][icnt_rc] = 0
gpgpu_stall_shd_mem[c_mem][data_port_stall] = 0
gpgpu_stall_shd_mem[t_mem][mshr_rc] = 0
gpgpu_stall_shd_mem[t_mem][icnt_rc] = 0
gpgpu_stall_shd_mem[t_mem][data_port_stall] = 0
gpgpu_stall_shd_mem[s_mem][bk_conf] = 0
gpgpu_stall_shd_mem[gl_mem][bk_conf] = 0
gpgpu_stall_shd_mem[gl_mem][coal_stall] = 0
gpgpu_stall_shd_mem[gl_mem][data_port_stall] = 0
gpgpu_stall_shd_mem[g_mem_ld][mshr_rc] = 0
gpgpu_stall_shd_mem[g_mem_ld][icnt_rc] = 0
gpgpu_stall_shd_mem[g_mem_ld][wb_icnt_rc] = 0
gpgpu_stall_shd_mem[g_mem_ld][wb_rsrv_fail] = 0
gpgpu_stall_shd_mem[g_mem_st][mshr_rc] = 0
gpgpu_stall_shd_mem[g_mem_st][icnt_rc] = 0
gpgpu_stall_shd_mem[g_mem_st][wb_icnt_rc] = 0
gpgpu_stall_shd_mem[g_mem_st][wb_rsrv_fail] = 0
gpgpu_stall_shd_mem[l_mem_ld][mshr_rc] = 0
gpgpu_stall_shd_mem[l_mem_ld][icnt_rc] = 0
gpgpu_stall_shd_mem[l_mem_ld][wb_icnt_rc] = 0
gpgpu_stall_shd_mem[l_mem_ld][wb_rsrv_fail] = 0
gpgpu_stall_shd_mem[l_mem_st][mshr_rc] = 0
gpgpu_stall_shd_mem[l_mem_st][icnt_rc] = 0
gpgpu_stall_shd_mem[l_mem_ld][wb_icnt_rc] = 0
gpgpu_stall_shd_mem[l_mem_ld][wb_rsrv_fail] = 0
gpu_reg_bank_conflict_stalls = 0
Warp Occupancy Distribution:
Stall:20332	W0_Idle:52989	W0_Scoreboard:43650	W1:291	W2:0	W3:0	W4:0	W5:0	W6:0	W7:0	W8:0	W9:0	W10:0	W11:0	W12:0	W13:0	W14:0	W15:0	W16:0	W17:0	W18:0	W19:0	W20:0	W21:0	W22:0	W23:0	W24:0	W25:0	W26:0	W27:0	W28:0	W29:0	W30:0	W31:0	W32:77824
traffic_breakdown_coretomem[CONST_ACC_R] = 224 {8:28,}
traffic_breakdown_coretomem[GLOBAL_ACC_R] = 33104 {8:4138,}
traffic_breakdown_coretomem[GLOBAL_ACC_W] = 1960 {40:49,}
traffic_breakdown_coretomem[INST_ACC_R] = 1128 {8:141,}
traffic_breakdown_memtocore[CONST_ACC_R] = 2016 {72:28,}
traffic_breakdown_memtocore[GLOBAL_ACC_R] = 165520 {40:4138,}
traffic_breakdown_memtocore[GLOBAL_ACC_W] = 392 {8:49,}
traffic_breakdown_memtocore[INST_ACC_R] = 19176 {136:141,}
maxmrqlatency = 119 
maxdqlatency = 0 
maxmflatency = 401 
averagemflatency = 263 
max_icnt2mem_latency = 107 
max_icnt2sh_latency = 757278 
mrq_lat_table:419 	65 	65 	71 	146 	212 	95 	0 	0 	0 	0 	0 	0 	0 	0 	0 	0 	0 	0 	0 	0 	0 	0 	0 	0 	0 	0 	0 	0 	0 	0 	0 	
[...]
L2_cache_bank[10]: Access = 53766, Miss = 908, Miss_rate = 0.017, Pending_hits = 131, Reservation_fails = 0
L2_cache_bank[11]: Access = 53285, Miss = 908, Miss_rate = 0.017, Pending_hits = 160, Reservation_fails = 0
L2_cache_bank[12]: Access = 53204, Miss = 908, Miss_rate = 0.017, Pending_hits = 158, Reservation_fails = 0
L2_cache_bank[13]: Access = 53380, Miss = 908, Miss_rate = 0.017, Pending_hits = 158, Reservation_fails = 0
L2_cache_bank[14]: Access = 53170, Miss = 907, Miss_rate = 0.017, Pending_hits = 117, Reservation_fails = 0
L2_cache_bank[15]: Access = 53737, Miss = 907, Miss_rate = 0.017, Pending_hits = 136, Reservation_fails = 1
L2_cache_bank[16]: Access = 53642, Miss = 908, Miss_rate = 0.017, Pending_hits = 118, Reservation_fails = 0
L2_cache_bank[17]: Access = 53653, Miss = 908, Miss_rate = 0.017, Pending_hits = 131, Reservation_fails = 0
L2_cache_bank[18]: Access = 53271, Miss = 908, Miss_rate = 0.017, Pending_hits = 129, Reservation_fails = 0
L2_cache_bank[19]: Access = 53646, Miss = 908, Miss_rate = 0.017, Pending_hits = 136, Reservation_fails = 0
L2_cache_bank[20]: Access = 53474, Miss = 908, Miss_rate = 0.017, Pending_hits = 111, Reservation_fails = 0
L2_cache_bank[21]: Access = 53591, Miss = 908, Miss_rate = 0.017, Pending_hits = 137, Reservation_fails = 0
L2_total_cache_accesses = 1187280
L2_total_cache_misses = 19976
L2_total_cache_miss_rate = 0.0168
L2_total_cache_pending_hits = 2982
L2_total_cache_reservation_fails = 2
L2_total_cache_breakdown:
	L2_cache_stats_breakdown[GLOBAL_ACC_R][HIT] = 871146
	L2_cache_stats_breakdown[GLOBAL_ACC_R][HIT_RESERVED] = 2715
	L2_cache_stats_breakdown[GLOBAL_ACC_R][MISS] = 17913
	L2_cache_stats_breakdown[GLOBAL_ACC_R][RESERVATION_FAIL] = 0
	L2_cache_stats_breakdown[LOCAL_ACC_R][HIT] = 0
	L2_cache_stats_breakdown[LOCAL_ACC_R][HIT_RESERVED] = 0
	L2_cache_stats_breakdown[LOCAL_ACC_R][MISS] = 0
	L2_cache_stats_breakdown[LOCAL_ACC_R][RESERVATION_FAIL] = 0
	L2_cache_stats_breakdown[CONST_ACC_R][HIT] = 0
	L2_cache_stats_breakdown[CONST_ACC_R][HIT_RESERVED] = 27
	L2_cache_stats_breakdown[CONST_ACC_R][MISS] = 1
	L2_cache_stats_breakdown[CONST_ACC_R][RESERVATION_FAIL] = 0
	L2_cache_stats_breakdown[TEXTURE_ACC_R][HIT] = 0
	L2_cache_stats_breakdown[TEXTURE_ACC_R][HIT_RESERVED] = 0
	L2_cache_stats_breakdown[TEXTURE_ACC_R][MISS] = 0
	L2_cache_stats_breakdown[TEXTURE_ACC_R][RESERVATION_FAIL] = 0
	L2_cache_stats_breakdown[GLOBAL_ACC_W][HIT] = 293138
	L2_cache_stats_breakdown[GLOBAL_ACC_W][HIT_RESERVED] = 116
	L2_cache_stats_breakdown[GLOBAL_ACC_W][MISS] = 2056
	L2_cache_stats_breakdown[GLOBAL_ACC_W][RESERVATION_FAIL] = 2
	L2_cache_stats_breakdown[LOCAL_ACC_W][HIT] = 0
	L2_cache_stats_breakdown[LOCAL_ACC_W][HIT_RESERVED] = 0
	L2_cache_stats_breakdown[LOCAL_ACC_W][MISS] = 0
	L2_cache_stats_breakdown[LOCAL_ACC_W][RESERVATION_FAIL] = 0
	L2_cache_stats_breakdown[L1_WRBK_ACC][HIT] = 0
	L2_cache_stats_breakdown[L1_WRBK_ACC][HIT_RESERVED] = 0
	L2_cache_stats_breakdown[L1_WRBK_ACC][MISS] = 0
	L2_cache_stats_breakdown[L1_WRBK_ACC][RESERVATION_FAIL] = 0
	L2_cache_stats_breakdown[L2_WRBK_ACC][HIT] = 0
	L2_cache_stats_breakdown[L2_WRBK_ACC][HIT_RESERVED] = 0
	L2_cache_stats_breakdown[L2_WRBK_ACC][MISS] = 0
	L2_cache_stats_breakdown[L2_WRBK_ACC][RESERVATION_FAIL] = 0
	L2_cache_stats_breakdown[INST_ACC_R][HIT] = 38
	L2_cache_stats_breakdown[INST_ACC_R][HIT_RESERVED] = 124
	L2_cache_stats_breakdown[INST_ACC_R][MISS] = 6
	L2_cache_stats_breakdown[INST_ACC_R][RESERVATION_FAIL] = 0
	L2_cache_stats_breakdown[L1_WR_ALLOC_R][HIT] = 0
	L2_cache_stats_breakdown[L1_WR_ALLOC_R][HIT_RESERVED] = 0
	L2_cache_stats_breakdown[L1_WR_ALLOC_R][MISS] = 0
	L2_cache_stats_breakdown[L1_WR_ALLOC_R][RESERVATION_FAIL] = 0
	L2_cache_stats_breakdown[L2_WR_ALLOC_R][HIT] = 0
	L2_cache_stats_breakdown[L2_WR_ALLOC_R][HIT_RESERVED] = 0
	L2_cache_stats_breakdown[L2_WR_ALLOC_R][MISS] = 0
	L2_cache_stats_breakdown[L2_WR_ALLOC_R][RESERVATION_FAIL] = 0
	L2_cache_stats_breakdown[GLOBAL_ACC_R][TOTAL_ACCESS] = 891774
	L2_cache_stats_breakdown[CONST_ACC_R][TOTAL_ACCESS] = 28
	L2_cache_stats_breakdown[GLOBAL_ACC_W][TOTAL_ACCESS] = 295310
	L2_cache_stats_breakdown[INST_ACC_R][TOTAL_ACCESS] = 168
L2_cache_data_port_util = 0.282
L2_cache_fill_port_util = 0.014

icnt_total_pkts_mem_to_simt=2597859
icnt_total_pkts_simt_to_mem=1482717
LD_mem_lat_dist  0 0 0 0 0 0 0 0 0 0 0 0 0 0 0 0 0 0 0 0 0 0 0 0 0 0 0
ST_mem_lat_dist  0 0 0 0 0 0 0 0 0 0 0 0 0 0 0 0 0 0 0 0 0 0 0 0 0 0 0
----------------------------Interconnect-DETAILS--------------------------------
Class 0:
Packet latency average = 8.56812
	minimum = 6
	maximum = 32
Network latency average = 8.38354
	minimum = 6
	maximum = 23
Slowest packet = 2371212
Flit latency average = 8.17513
	minimum = 6
	maximum = 22
Slowest flit = 4075774
Fragmentation average = 0
	minimum = 0
	maximum = 0
Injected packet rate average = 0.0422704
	minimum = 0.0330237 (at node 3)
	maximum = 0.0495356 (at node 44)
Accepted packet rate average = 0.0422704
	minimum = 0.0330237 (at node 3)
	maximum = 0.0495356 (at node 44)
Injected flit rate average = 0.0634056
	minimum = 0.0330237 (at node 3)
	maximum = 0.0990712 (at node 44)
Accepted flit rate average= 0.0634056
	minimum = 0.0474716 (at node 28)
	maximum = 0.0825593 (at node 0)
Injected packet length average = 1.5
Accepted packet length average = 1.5
Total in-flight flits = 0 (0 measured)
====== Overall Traffic Statistics ======
====== Traffic class 0 ======
Packet latency average = 36.0503 (20 samples)
	minimum = 6 (20 samples)
	maximum = 320.9 (20 samples)
Network latency average = 21.6783 (20 samples)
	minimum = 6 (20 samples)
	maximum = 240.9 (20 samples)
Flit latency average = 22.4173 (20 samples)
	minimum = 6 (20 samples)
	maximum = 240.2 (20 samples)
Fragmentation average = 0.00861438 (20 samples)
	minimum = 0 (20 samples)
	maximum = 94.05 (20 samples)
Injected packet rate average = 0.0476292 (20 samples)
	minimum = 0.0352535 (20 samples)
	maximum = 0.114504 (20 samples)
Accepted packet rate average = 0.0476292 (20 samples)
	minimum = 0.0352535 (20 samples)
	maximum = 0.114504 (20 samples)
Injected flit rate average = 0.0759236 (20 samples)
	minimum = 0.0438731 (20 samples)
	maximum = 0.165399 (20 samples)
Accepted flit rate average = 0.0759236 (20 samples)
	minimum = 0.0553701 (20 samples)
	maximum = 0.218201 (20 samples)
Injected packet size average = 1.59406 (20 samples)
Accepted packet size average = 1.59406 (20 samples)
Hops average = 1 (20 samples)
----------------------------END-of-Interconnect-DETAILS-------------------------


gpgpu_simulation_time = 0 days, 1 hrs, 13 min, 37 sec (4417 sec)
gpgpu_simulation_rate = 7142 (inst/sec)
gpgpu_simulation_rate = 1145 (cycle/sec)
Kernel Executed 10 times
Result stored in result.txt
========================================UVM statistics==============================
========================================TLB statistics(access)==============================
Shader0: Tlb_access: 0 Tlb_hit: 0 Tlb_miss: 0 Tlb_hit_rate: -nan
Shader1: Tlb_access: 0 Tlb_hit: 0 Tlb_miss: 0 Tlb_hit_rate: -nan
Shader2: Tlb_access: 0 Tlb_hit: 0 Tlb_miss: 0 Tlb_hit_rate: -nan
Shader3: Tlb_access: 0 Tlb_hit: 0 Tlb_miss: 0 Tlb_hit_rate: -nan
Shader4: Tlb_access: 0 Tlb_hit: 0 Tlb_miss: 0 Tlb_hit_rate: -nan
Shader5: Tlb_access: 0 Tlb_hit: 0 Tlb_miss: 0 Tlb_hit_rate: -nan
Shader6: Tlb_access: 0 Tlb_hit: 0 Tlb_miss: 0 Tlb_hit_rate: -nan
Shader7: Tlb_access: 0 Tlb_hit: 0 Tlb_miss: 0 Tlb_hit_rate: -nan
Shader8: Tlb_access: 0 Tlb_hit: 0 Tlb_miss: 0 Tlb_hit_rate: -nan
Shader9: Tlb_access: 0 Tlb_hit: 0 Tlb_miss: 0 Tlb_hit_rate: -nan
Shader10: Tlb_access: 0 Tlb_hit: 0 Tlb_miss: 0 Tlb_hit_rate: -nan
Shader11: Tlb_access: 0 Tlb_hit: 0 Tlb_miss: 0 Tlb_hit_rate: -nan
Shader12: Tlb_access: 0 Tlb_hit: 0 Tlb_miss: 0 Tlb_hit_rate: -nan
Shader13: Tlb_access: 0 Tlb_hit: 0 Tlb_miss: 0 Tlb_hit_rate: -nan
Shader14: Tlb_access: 0 Tlb_hit: 0 Tlb_miss: 0 Tlb_hit_rate: -nan
Shader15: Tlb_access: 0 Tlb_hit: 0 Tlb_miss: 0 Tlb_hit_rate: -nan
Shader16: Tlb_access: 0 Tlb_hit: 0 Tlb_miss: 0 Tlb_hit_rate: -nan
Shader17: Tlb_access: 0 Tlb_hit: 0 Tlb_miss: 0 Tlb_hit_rate: -nan
Shader18: Tlb_access: 0 Tlb_hit: 0 Tlb_miss: 0 Tlb_hit_rate: -nan
Shader19: Tlb_access: 0 Tlb_hit: 0 Tlb_miss: 0 Tlb_hit_rate: -nan
Shader20: Tlb_access: 0 Tlb_hit: 0 Tlb_miss: 0 Tlb_hit_rate: -nan
Shader21: Tlb_access: 0 Tlb_hit: 0 Tlb_miss: 0 Tlb_hit_rate: -nan
Shader22: Tlb_access: 0 Tlb_hit: 0 Tlb_miss: 0 Tlb_hit_rate: -nan
Shader23: Tlb_access: 0 Tlb_hit: 0 Tlb_miss: 0 Tlb_hit_rate: -nan
Shader24: Tlb_access: 0 Tlb_hit: 0 Tlb_miss: 0 Tlb_hit_rate: -nan
Shader25: Tlb_access: 0 Tlb_hit: 0 Tlb_miss: 0 Tlb_hit_rate: -nan
Shader26: Tlb_access: 0 Tlb_hit: 0 Tlb_miss: 0 Tlb_hit_rate: -nan
Shader27: Tlb_access: 0 Tlb_hit: 0 Tlb_miss: 0 Tlb_hit_rate: -nan
Tlb_tot_access: 0 Tlb_tot_hit: 0, Tlb_tot_miss: 0, Tlb_tot_hit_rate: -nan
========================================TLB statistics(validate)==============================
Shader0: Tlb_validate: 0 Tlb_invalidate: 0 Tlb_evict: 0 Tlb_page_evict: 0
Shader1: Tlb_validate: 0 Tlb_invalidate: 0 Tlb_evict: 0 Tlb_page_evict: 0
Shader2: Tlb_validate: 0 Tlb_invalidate: 0 Tlb_evict: 0 Tlb_page_evict: 0
Shader3: Tlb_validate: 0 Tlb_invalidate: 0 Tlb_evict: 0 Tlb_page_evict: 0
Shader4: Tlb_validate: 0 Tlb_invalidate: 0 Tlb_evict: 0 Tlb_page_evict: 0
Shader5: Tlb_validate: 0 Tlb_invalidate: 0 Tlb_evict: 0 Tlb_page_evict: 0
Shader6: Tlb_validate: 0 Tlb_invalidate: 0 Tlb_evict: 0 Tlb_page_evict: 0
Shader7: Tlb_validate: 0 Tlb_invalidate: 0 Tlb_evict: 0 Tlb_page_evict: 0
Shader8: Tlb_validate: 0 Tlb_invalidate: 0 Tlb_evict: 0 Tlb_page_evict: 0
Shader9: Tlb_validate: 0 Tlb_invalidate: 0 Tlb_evict: 0 Tlb_page_evict: 0
Shader10: Tlb_validate: 0 Tlb_invalidate: 0 Tlb_evict: 0 Tlb_page_evict: 0
Shader11: Tlb_validate: 0 Tlb_invalidate: 0 Tlb_evict: 0 Tlb_page_evict: 0
Shader12: Tlb_validate: 0 Tlb_invalidate: 0 Tlb_evict: 0 Tlb_page_evict: 0
Shader13: Tlb_validate: 0 Tlb_invalidate: 0 Tlb_evict: 0 Tlb_page_evict: 0
Shader14: Tlb_validate: 0 Tlb_invalidate: 0 Tlb_evict: 0 Tlb_page_evict: 0
Shader15: Tlb_validate: 0 Tlb_invalidate: 0 Tlb_evict: 0 Tlb_page_evict: 0
Shader16: Tlb_validate: 0 Tlb_invalidate: 0 Tlb_evict: 0 Tlb_page_evict: 0
Shader17: Tlb_validate: 0 Tlb_invalidate: 0 Tlb_evict: 0 Tlb_page_evict: 0
Shader18: Tlb_validate: 0 Tlb_invalidate: 0 Tlb_evict: 0 Tlb_page_evict: 0
Shader19: Tlb_validate: 0 Tlb_invalidate: 0 Tlb_evict: 0 Tlb_page_evict: 0
Shader20: Tlb_validate: 0 Tlb_invalidate: 0 Tlb_evict: 0 Tlb_page_evict: 0
Shader21: Tlb_validate: 0 Tlb_invalidate: 0 Tlb_evict: 0 Tlb_page_evict: 0
Shader22: Tlb_validate: 0 Tlb_invalidate: 0 Tlb_evict: 0 Tlb_page_evict: 0
Shader23: Tlb_validate: 0 Tlb_invalidate: 0 Tlb_evict: 0 Tlb_page_evict: 0
Shader24: Tlb_validate: 0 Tlb_invalidate: 0 Tlb_evict: 0 Tlb_page_evict: 0
Shader25: Tlb_validate: 0 Tlb_invalidate: 0 Tlb_evict: 0 Tlb_page_evict: 0
Shader26: Tlb_validate: 0 Tlb_invalidate: 0 Tlb_evict: 0 Tlb_page_evict: 0
Shader27: Tlb_validate: 0 Tlb_invalidate: 0 Tlb_evict: 0 Tlb_page_evict: 0
Tlb_tot_valiate: 0 Tlb_invalidate: 0, Tlb_tot_evict: 0, Tlb_tot_evict page: 0
========================================TLB statistics(threshing)==============================
Shader0: Total 0
Shader1: Total 0
Shader2: Total 0
Shader3: Total 0
Shader4: Total 0
Shader5: Total 0
Shader6: Total 0
Shader7: Total 0
Shader8: Total 0
Shader9: Total 0
Shader10: Total 0
Shader11: Total 0
Shader12: Total 0
Shader13: Total 0
Shader14: Total 0
Shader15: Total 0
Shader16: Total 0
Shader17: Total 0
Shader18: Total 0
Shader19: Total 0
Shader20: Total 0
Shader21: Total 0
Shader22: Total 0
Shader23: Total 0
Shader24: Total 0
Shader25: Total 0
Shader26: Total 0
Shader27: Total 0
Tlb_tot_thresh: 0
========================================Page fault statistics==============================
Shader0: Page_table_access:0 Page_hit: 0 Page_miss: 0 Page_hit_rate: -nan Page_fault: 0 Page_pending: 0
Shader1: Page_table_access:0 Page_hit: 0 Page_miss: 0 Page_hit_rate: -nan Page_fault: 0 Page_pending: 0
Shader2: Page_table_access:0 Page_hit: 0 Page_miss: 0 Page_hit_rate: -nan Page_fault: 0 Page_pending: 0
Shader3: Page_table_access:0 Page_hit: 0 Page_miss: 0 Page_hit_rate: -nan Page_fault: 0 Page_pending: 0
Shader4: Page_table_access:0 Page_hit: 0 Page_miss: 0 Page_hit_rate: -nan Page_fault: 0 Page_pending: 0
Shader5: Page_table_access:0 Page_hit: 0 Page_miss: 0 Page_hit_rate: -nan Page_fault: 0 Page_pending: 0
Shader6: Page_table_access:0 Page_hit: 0 Page_miss: 0 Page_hit_rate: -nan Page_fault: 0 Page_pending: 0
Shader7: Page_table_access:0 Page_hit: 0 Page_miss: 0 Page_hit_rate: -nan Page_fault: 0 Page_pending: 0
Shader8: Page_table_access:0 Page_hit: 0 Page_miss: 0 Page_hit_rate: -nan Page_fault: 0 Page_pending: 0
Shader9: Page_table_access:0 Page_hit: 0 Page_miss: 0 Page_hit_rate: -nan Page_fault: 0 Page_pending: 0
Shader10: Page_table_access:0 Page_hit: 0 Page_miss: 0 Page_hit_rate: -nan Page_fault: 0 Page_pending: 0
Shader11: Page_table_access:0 Page_hit: 0 Page_miss: 0 Page_hit_rate: -nan Page_fault: 0 Page_pending: 0
Shader12: Page_table_access:0 Page_hit: 0 Page_miss: 0 Page_hit_rate: -nan Page_fault: 0 Page_pending: 0
Shader13: Page_table_access:0 Page_hit: 0 Page_miss: 0 Page_hit_rate: -nan Page_fault: 0 Page_pending: 0
Shader14: Page_table_access:0 Page_hit: 0 Page_miss: 0 Page_hit_rate: -nan Page_fault: 0 Page_pending: 0
Shader15: Page_table_access:0 Page_hit: 0 Page_miss: 0 Page_hit_rate: -nan Page_fault: 0 Page_pending: 0
Shader16: Page_table_access:0 Page_hit: 0 Page_miss: 0 Page_hit_rate: -nan Page_fault: 0 Page_pending: 0
Shader17: Page_table_access:0 Page_hit: 0 Page_miss: 0 Page_hit_rate: -nan Page_fault: 0 Page_pending: 0
Shader18: Page_table_access:0 Page_hit: 0 Page_miss: 0 Page_hit_rate: -nan Page_fault: 0 Page_pending: 0
Shader19: Page_table_access:0 Page_hit: 0 Page_miss: 0 Page_hit_rate: -nan Page_fault: 0 Page_pending: 0
Shader20: Page_table_access:0 Page_hit: 0 Page_miss: 0 Page_hit_rate: -nan Page_fault: 0 Page_pending: 0
Shader21: Page_table_access:0 Page_hit: 0 Page_miss: 0 Page_hit_rate: -nan Page_fault: 0 Page_pending: 0
Shader22: Page_table_access:0 Page_hit: 0 Page_miss: 0 Page_hit_rate: -nan Page_fault: 0 Page_pending: 0
Shader23: Page_table_access:0 Page_hit: 0 Page_miss: 0 Page_hit_rate: -nan Page_fault: 0 Page_pending: 0
Shader24: Page_table_access:0 Page_hit: 0 Page_miss: 0 Page_hit_rate: -nan Page_fault: 0 Page_pending: 0
Shader25: Page_table_access:0 Page_hit: 0 Page_miss: 0 Page_hit_rate: -nan Page_fault: 0 Page_pending: 0
Shader26: Page_table_access:0 Page_hit: 0 Page_miss: 0 Page_hit_rate: -nan Page_fault: 0 Page_pending: 0
Shader27: Page_table_access:0 Page_hit: 0 Page_miss: 0 Page_hit_rate: -nan Page_fault: 0 Page_pending: 0
Page_talbe_tot_access: 0 Page_tot_hit: 0, Page_tot_miss 0, Page_tot_hit_rate: -nan Page_tot_fault: 0 Page_tot_pending: 0
Total_memory_access_page_fault: 0, Average_latency 0.000000
========================================Page threshing statistics==============================
Page_validate: 0 Page_evict_diry: 0 Page_evict_not_diry: 0
Page_tot_thresh: 0
========================================Memory access statistics==============================
========================================Prefetch statistics==============================
Tot_page_hit: 0, Tot_page_miss: 0, Tot_page_fault: 0
Avg_page_latency: 0.000000, Avg_prefetch_size: -nan, Avg_prefetch_latency: 0.000000
========================================PCI-e statistics==============================
Pcie_read_utilization: 0.000000
[0-25]: -nan, [26-50]: -nan, [51-75]: -nan, [76-100]: -nan
Pcie_write_utilization: 0.000000
[0-25]: -nan, [26-50]: -nan, [51-75]: -nan, [76-100]: -nan
F:        0----T:    61307 	 St: 80000000 Sz: 524288 	 Sm: 0 	 T: memcpy_h2d(41.395679)
F:    61308----T:   243127 	 St: 80080000 Sz: 1572864 	 Sm: 0 	 T: memcpy_h2d(122.767723)
F:   243128----T:   251830 	 St: 80200000 Sz: 65536 	 Sm: 0 	 T: memcpy_h2d(5.875760)
F:   251831----T:   260533 	 St: 80210000 Sz: 65536 	 Sm: 0 	 T: memcpy_h2d(5.875760)
F:   260534----T:   269236 	 St: 80220000 Sz: 65536 	 Sm: 0 	 T: memcpy_h2d(5.875760)
F:   269237----T:   300430 	 St: 80230000 Sz: 262144 	 Sm: 0 	 T: memcpy_h2d(21.062120)
F:   300431----T:   302966 	 St: 80270000 Sz: 1 	 Sm: 0 	 T: memcpy_h2d(1.711681)
F:   525117----T:   533310 	 	 	 Kl: 1 	 Sm: 0 	 T: kernel_launch(5.532073)
F:   755460----T:   757315 	 	 	 Kl: 2 	 Sm: 0 	 T: kernel_launch(1.252532)
F:   757315----T:   759850 	 St: 80270000 Sz: 1 	 Sm: 0 	 T: memcpy_d2h(1.711681)
F:   759851----T:   762386 	 St: 80270000 Sz: 1 	 Sm: 0 	 T: memcpy_h2d(1.711681)
F:   984537----T:   993544 	 	 	 Kl: 3 	 Sm: 0 	 T: kernel_launch(6.081702)
F:  1215694----T:  1216825 	 	 	 Kl: 4 	 Sm: 0 	 T: kernel_launch(0.763673)
F:  1216825----T:  1219360 	 St: 80270000 Sz: 1 	 Sm: 0 	 T: memcpy_d2h(1.711681)
F:  1219361----T:  1221896 	 St: 80270000 Sz: 1 	 Sm: 0 	 T: memcpy_h2d(1.711681)
F:  1444047----T:  1455044 	 	 	 Kl: 5 	 Sm: 0 	 T: kernel_launch(7.425388)
F:  1677194----T:  1678471 	 	 	 Kl: 6 	 Sm: 0 	 T: kernel_launch(0.862255)
F:  1678471----T:  1681006 	 St: 80270000 Sz: 1 	 Sm: 0 	 T: memcpy_d2h(1.711681)
F:  1681007----T:  1683542 	 St: 80270000 Sz: 1 	 Sm: 0 	 T: memcpy_h2d(1.711681)
F:  1905693----T:  1917069 	 	 	 Kl: 7 	 Sm: 0 	 T: kernel_launch(7.681296)
F:  2139219----T:  2142103 	 	 	 Kl: 8 	 Sm: 0 	 T: kernel_launch(1.947333)
F:  2142103----T:  2144638 	 St: 80270000 Sz: 1 	 Sm: 0 	 T: memcpy_d2h(1.711681)
F:  2144639----T:  2147174 	 St: 80270000 Sz: 1 	 Sm: 0 	 T: memcpy_h2d(1.711681)
F:  2369325----T:  2389656 	 	 	 Kl: 9 	 Sm: 0 	 T: kernel_launch(13.727886)
F:  2611806----T:  2616132 	 	 	 Kl: 10 	 Sm: 0 	 T: kernel_launch(2.920999)
F:  2616132----T:  2618667 	 St: 80270000 Sz: 1 	 Sm: 0 	 T: memcpy_d2h(1.711681)
F:  2618668----T:  2621203 	 St: 80270000 Sz: 1 	 Sm: 0 	 T: memcpy_h2d(1.711681)
F:  2843354----T:  2898430 	 	 	 Kl: 11 	 Sm: 0 	 T: kernel_launch(37.188385)
F:  3120580----T:  3124866 	 	 	 Kl: 12 	 Sm: 0 	 T: kernel_launch(2.893991)
F:  3124866----T:  3127401 	 St: 80270000 Sz: 1 	 Sm: 0 	 T: memcpy_d2h(1.711681)
F:  3127402----T:  3129937 	 St: 80270000 Sz: 1 	 Sm: 0 	 T: memcpy_h2d(1.711681)
F:  3352088----T:  3440979 	 	 	 Kl: 13 	 Sm: 0 	 T: kernel_launch(60.020931)
F:  3663129----T:  3667392 	 	 	 Kl: 14 	 Sm: 0 	 T: kernel_launch(2.878460)
F:  3667392----T:  3669927 	 St: 80270000 Sz: 1 	 Sm: 0 	 T: memcpy_d2h(1.711681)
F:  3669928----T:  3672463 	 St: 80270000 Sz: 1 	 Sm: 0 	 T: memcpy_h2d(1.711681)
F:  3894614----T:  3928445 	 	 	 Kl: 15 	 Sm: 0 	 T: kernel_launch(22.843349)
F:  4150595----T:  4152622 	 	 	 Kl: 16 	 Sm: 0 	 T: kernel_launch(1.368670)
F:  4152622----T:  4155157 	 St: 80270000 Sz: 1 	 Sm: 0 	 T: memcpy_d2h(1.711681)
F:  4155158----T:  4157693 	 St: 80270000 Sz: 1 	 Sm: 0 	 T: memcpy_h2d(1.711681)
F:  4379844----T:  4384787 	 	 	 Kl: 17 	 Sm: 0 	 T: kernel_launch(3.337610)
F:  4606937----T:  4608031 	 	 	 Kl: 18 	 Sm: 0 	 T: kernel_launch(0.738690)
F:  4608031----T:  4610566 	 St: 80270000 Sz: 1 	 Sm: 0 	 T: memcpy_d2h(1.711681)
F:  4610567----T:  4613102 	 St: 80270000 Sz: 1 	 Sm: 0 	 T: memcpy_h2d(1.711681)
F:  4835253----T:  4837272 	 	 	 Kl: 19 	 Sm: 0 	 T: kernel_launch(1.363268)
F:  5059422----T:  5060392 	 	 	 Kl: 20 	 Sm: 0 	 T: kernel_launch(0.654963)
F:  5060392----T:  5062927 	 St: 80270000 Sz: 1 	 Sm: 0 	 T: memcpy_d2h(1.711681)
F:  5062928----T:  5094121 	 St: 80230000 Sz: 262144 	 Sm: 0 	 T: memcpy_d2h(21.062120)
Tot_prefetch_time: 0(cycle), 0.000000(us)
Tot_kernel_exec_time: 268777(cycle), 181.483459(us)
Tot_kernel_exec_time_and_fault_time: 268777(cycle), 181.483459(us)
Tot_memcpy_h2d_time: 325775(cycle), 219.969620(us)
Tot_memcpy_d2h_time: 56543(cycle), 38.178932(us)
Tot_memcpy_time: 382318(cycle), 258.148560(us)
Tot_devicesync_time: 0(cycle), 0.000000(us)
Tot_writeback_time: 0(cycle), 0.000000(us)
Tot_memcpy_d2h_sync_wb_time: 56543(cycle), 38.178932(us)
GPGPU-Sim: *** exit detected ***
