

        *** GPGPU-Sim Simulator Version 3.2.2  [build gpgpu-sim_git-commit-7c62de1d26a7fea160a1181332b97276bc435f13_modified_409] ***


GPGPU-Sim PTX: simulation mode 0 (can change with PTX_SIM_MODE_FUNC environment variable:
               1=functional simulation only, 0=detailed performance simulator)
GPGPU-Sim: Configuration options:

-network_mode                           1 # Interconnection network mode
-inter_config_file   config_fermi_islip.icnt # Interconnection network config file
-gpgpu_ptx_use_cuobjdump                    1 # Use cuobjdump to extract ptx and sass from binaries
-gpgpu_experimental_lib_support                    0 # Try to extract code from cuda libraries [Broken because of unknown cudaGetExportTable]
-gpgpu_ptx_convert_to_ptxplus                    0 # Convert SASS (native ISA) to ptxplus and run ptxplus
-gpgpu_ptx_force_max_capability                   20 # Force maximum compute capability
-gpgpu_ptx_inst_debug_to_file                    0 # Dump executed instructions' debug information to file
-gpgpu_ptx_inst_debug_file       inst_debug.txt # Executed instructions' debug output file
-gpgpu_ptx_inst_debug_thread_uid                    1 # Thread UID for executed instructions' debug output
-gpgpu_simd_model                       1 # 1 = post-dominator
-gpgpu_shader_core_pipeline              2048:32 # shader core pipeline config, i.e., {<nthread>:<warpsize>}
-gpgpu_tex_cache:l1  16:128:24,L:R:m:N:L,F:128:4,128:2 # per-shader L1 texture cache  (READ-ONLY) config  {<nsets>:<bsize>:<assoc>,<rep>:<wr>:<alloc>:<wr_alloc>,<mshr>:<N>:<merge>,<mq>:<rf>}
-gpgpu_const_cache:l1 128:64:2,L:R:f:N:L,A:2:64,4 # per-shader L1 constant memory cache  (READ-ONLY) config  {<nsets>:<bsize>:<assoc>,<rep>:<wr>:<alloc>:<wr_alloc>,<mshr>:<N>:<merge>,<mq>} 
-gpgpu_cache:il1     8:128:4,L:R:f:N:L,A:2:48,4 # shader L1 instruction cache config  {<nsets>:<bsize>:<assoc>,<rep>:<wr>:<alloc>:<wr_alloc>,<mshr>:<N>:<merge>,<mq>} 
-gpgpu_cache:dl1     64:128:6,L:L:m:N:H,A:128:8,8 # per-shader L1 data cache config  {<nsets>:<bsize>:<assoc>,<rep>:<wr>:<alloc>:<wr_alloc>,<mshr>:<N>:<merge>,<mq> | none}
-gpgpu_cache:dl1PrefL1                 none # per-shader L1 data cache config  {<nsets>:<bsize>:<assoc>,<rep>:<wr>:<alloc>:<wr_alloc>,<mshr>:<N>:<merge>,<mq> | none}
-gpgpu_cache:dl1PrefShared                 none # per-shader L1 data cache config  {<nsets>:<bsize>:<assoc>,<rep>:<wr>:<alloc>:<wr_alloc>,<mshr>:<N>:<merge>,<mq> | none}
-gmem_skip_L1D                          1 # global memory access skip L1D cache (implements -Xptxas -dlcm=cg, default=no skip)
-gpgpu_perfect_mem                      0 # enable perfect memory mode (no cache miss)
-n_regfile_gating_group                    4 # group of lanes that should be read/written together)
-gpgpu_clock_gated_reg_file                    0 # enable clock gated reg file for power calculations
-gpgpu_clock_gated_lanes                    0 # enable clock gated lanes for power calculations
-gpgpu_shader_registers                65536 # Number of registers per shader core. Limits number of concurrent CTAs. (default 8192)
-gpgpu_shader_cta                      32 # Maximum number of concurrent CTAs in shader (default 8)
-gpgpu_num_cta_barriers                   16 # Maximum number of named barriers per CTA (default 16)
-gpgpu_n_clusters                      28 # number of processing clusters
-gpgpu_n_cores_per_cluster                    1 # number of simd cores per cluster
-gpgpu_n_cluster_ejection_buffer_size                    8 # number of packets in ejection buffer
-gpgpu_n_ldst_response_buffer_size                    2 # number of response packets in ld/st unit ejection buffer
-gpgpu_shmem_size                   16384 # Size of shared memory per shader core (default 16kB)
-gpgpu_shmem_size                   98304 # Size of shared memory per shader core (default 16kB)
-gpgpu_shmem_size_PrefL1                16384 # Size of shared memory per shader core (default 16kB)
-gpgpu_shmem_size_PrefShared                16384 # Size of shared memory per shader core (default 16kB)
-gpgpu_shmem_num_banks                   32 # Number of banks in the shared memory in each shader core (default 16)
-gpgpu_shmem_limited_broadcast                    0 # Limit shared memory to do one broadcast per cycle (default on)
-gpgpu_shmem_warp_parts                    1 # Number of portions a warp is divided into for shared memory bank conflict check 
-gpgpu_warpdistro_shader                   -1 # Specify which shader core to collect the warp size distribution from
-gpgpu_warp_issue_shader                    0 # Specify which shader core to collect the warp issue distribution from
-gpgpu_local_mem_map                    1 # Mapping from local memory space address to simulated GPU physical address space (default = enabled)
-gpgpu_num_reg_banks                   32 # Number of register banks (default = 8)
-gpgpu_reg_bank_use_warp_id                    0 # Use warp ID in mapping registers to banks (default = off)
-gpgpu_operand_collector_num_units_sp                   20 # number of collector units (default = 4)
-gpgpu_operand_collector_num_units_sfu                    4 # number of collector units (default = 4)
-gpgpu_operand_collector_num_units_mem                    8 # number of collector units (default = 2)
-gpgpu_operand_collector_num_units_gen                    0 # number of collector units (default = 0)
-gpgpu_operand_collector_num_in_ports_sp                    4 # number of collector unit in ports (default = 1)
-gpgpu_operand_collector_num_in_ports_sfu                    1 # number of collector unit in ports (default = 1)
-gpgpu_operand_collector_num_in_ports_mem                    1 # number of collector unit in ports (default = 1)
-gpgpu_operand_collector_num_in_ports_gen                    0 # number of collector unit in ports (default = 0)
-gpgpu_operand_collector_num_out_ports_sp                    4 # number of collector unit in ports (default = 1)
-gpgpu_operand_collector_num_out_ports_sfu                    1 # number of collector unit in ports (default = 1)
-gpgpu_operand_collector_num_out_ports_mem                    1 # number of collector unit in ports (default = 1)
-gpgpu_operand_collector_num_out_ports_gen                    0 # number of collector unit in ports (default = 0)
-gpgpu_coalesce_arch                   13 # Coalescing arch (default = 13, anything else is off for now)
-gpgpu_num_sched_per_core                    2 # Number of warp schedulers per core
-gpgpu_max_insn_issue_per_warp                    2 # Max number of instructions that can be issued per warp in one cycle by scheduler
-gpgpu_simt_core_sim_order                    1 # Select the simulation order of cores in a cluster (0=Fix, 1=Round-Robin)
-gpgpu_pipeline_widths        4,1,1,4,1,1,6 # Pipeline widths ID_OC_SP,ID_OC_SFU,ID_OC_MEM,OC_EX_SP,OC_EX_SFU,OC_EX_MEM,EX_WB
-gpgpu_num_sp_units                     4 # Number of SP units (default=1)
-gpgpu_num_sfu_units                    1 # Number of SF units (default=1)
-gpgpu_num_mem_units                    1 # Number if ldst units (default=1) WARNING: not hooked up to anything
-gpgpu_scheduler                      gto # Scheduler configuration: < lrr | gto | two_level_active > If two_level_active:<num_active_warps>:<inner_prioritization>:<outer_prioritization>For complete list of prioritization values see shader.h enum scheduler_prioritization_typeDefault: gto
-gpgpu_concurrent_kernel_sm                    0 # Support concurrent kernels on a SM (default = disabled)
-tlb_size                            4096 # Number of tlb entries per SM.
-gpgpu_dram_scheduler                    1 # 0 = fifo, 1 = FR-FCFS (defaul)
-gpgpu_dram_partition_queues              8:8:8:8 # i2$:$2d:d2$:$2i
-l2_ideal                               0 # Use a ideal L2 cache that always hit
-gpgpu_cache:dl2     64:128:16,L:B:m:W:L,A:1024:1024,4:0,32 # unified banked L2 data cache config  {<nsets>:<bsize>:<assoc>,<rep>:<wr>:<alloc>:<wr_alloc>,<mshr>:<N>:<merge>,<mq>}
-gpgpu_cache:dl2_texture_only                    0 # L2 cache used for texture only
-gpgpu_n_mem                           11 # number of memory modules (e.g. memory controllers) in gpu
-gpgpu_n_sub_partition_per_mchannel                    2 # number of memory subpartition in each memory module
-gpgpu_n_mem_per_ctrlr                    1 # number of memory chips per memory controller
-gpgpu_memlatency_stat                   14 # track and display latency statistics 0x2 enables MC, 0x4 enables queue logs
-gpgpu_frfcfs_dram_sched_queue_size                   64 # 0 = unlimited (default); # entries per chip
-gpgpu_dram_return_queue_size                  116 # 0 = unlimited (default); # entries per chip
-gpgpu_dram_buswidth                    4 # default = 4 bytes (8 bytes per cycle at DDR)
-gpgpu_dram_burst_length                    8 # Burst length of each DRAM request (default = 4 data bus cycle)
-dram_data_command_freq_ratio                    4 # Frequency ratio between DRAM data bus and command bus (default = 2 times, i.e. DDR)
-gpgpu_dram_timing_opt nbk=16:CCD=2:RRD=6:RCD=12:RAS=28:RP=12:RC=40: CL=12:WL=4:CDLR=5:WR=12:nbkgrp=1:CCDL=0:RTPL=0 # DRAM timing parameters = {nbk:tCCD:tRRD:tRCD:tRAS:tRP:tRC:CL:WL:tCDLR:tWR:nbkgrp:tCCDL:tRTPL}
-rop_latency                          120 # ROP queue latency (default 85)
-dram_latency                         100 # DRAM latency (default 30)
-gpgpu_mem_addr_mapping dramid@8;00000000.00000000.00000000.00000000.0000RRRR.RRRRRRRR.RBBBCCCC.BCCSSSSS # mapping memory address to dram model {dramid@<start bit>;<memory address map>}
-gpgpu_mem_addr_test                    0 # run sweep test to check address mapping for aliased address
-gpgpu_mem_address_mask                    1 # 0 = old addressing mask, 1 = new addressing mask, 2 = new add. mask + flipped bank sel and chip sel bits
-gpuwattch_xml_file  gpuwattch_geforcegtx1080ti.xml # GPUWattch XML file
-power_simulation_enabled                    1 # Turn on power simulator (1=On, 0=Off)
-power_per_cycle_dump                    0 # Dump detailed power output each cycle
-power_trace_enabled                    0 # produce a file for the power trace (1=On, 0=Off)
-power_trace_zlevel                     6 # Compression level of the power trace output log (0=no comp, 9=highest)
-steady_power_levels_enabled                    0 # produce a file for the steady power levels (1=On, 0=Off)
-steady_state_definition                  8:4 # allowed deviation:number of samples
-gpgpu_max_cycle                        0 # terminates gpu simulation early (0 = no limit)
-gpgpu_max_insn                         0 # terminates gpu simulation early (0 = no limit)
-gpgpu_max_cta                          0 # terminates gpu simulation early (0 = no limit)
-gpgpu_runtime_stat                   500 # display runtime statistics such as dram utilization {<freq>:<flag>}
-liveness_message_freq                    1 # Minimum number of seconds between simulation liveness messages (0 = always print)
-gpgpu_flush_l1_cache                    0 # Flush L1 cache at the end of each kernel call
-gpgpu_flush_l2_cache                    0 # Flush L2 cache at the end of each kernel call
-gpgpu_deadlock_detect                    0 # Stop the simulation at deadlock (1=on (default), 0=off)
-gpgpu_ptx_instruction_classification                    0 # if enabled will classify ptx instruction types per kernel (Max 255 kernels now)
-gpgpu_ptx_sim_mode                     0 # Select between Performance (default) or Functional simulation (1)
-gpgpu_clock_domains 1481.0:2962.0:1481.0:2750.0 # Clock Domain Frequencies in MhZ {<Core Clock>:<ICNT Clock>:<L2 Clock>:<DRAM Clock>}
-gpgpu_max_concurrent_kernel                    8 # maximum kernels that can run concurrently on GPU
-gpgpu_cflog_interval                    0 # Interval between each snapshot in control flow logger
-visualizer_enabled                     0 # Turn on visualizer output (1=On, 0=Off)
-visualizer_outputfile                 NULL # Specifies the output log file for visualizer
-visualizer_zlevel                      6 # Compression level of the visualizer output log (0=no comp, 9=highest)
-trace_enabled                          0 # Turn on traces
-trace_components                    none # comma seperated list of traces to enable. Complete list found in trace_streams.tup. Default none
-trace_sampling_core                    0 # The core which is printed using CORE_DPRINTF. Default 0
-trace_sampling_memory_partition                   -1 # The memory partition which is printed using MEMPART_DPRINTF. Default -1 (i.e. all)
-gddr_size                            1GB # Size of GDDR in MB/GB.(GLOBAL_HEAP_START, GLOBAL_HEAP_START + gddr_size) would be used for unmanged memory, (GLOBAL_HEAP_START + gddr_size, GLOBAL_HEAP_START + gddr_size*2) would be used for managed memory. 
-page_table_walk_latency                  100 # Average page table walk latency (in core cycle).
-eviction_policy                      lru # Memory eviction policy: lru or random.
-percentage_of_free_page_buffer                    0 # Percentage of free page buffer to trigger the page eviction.
-page_size                            4KB # GDDR page size, only 4KB/2MB avaliable.
-pcie_bandwith                   16.0GB/s # PCI-e bandwith per direction, in GB/s.
-sim_prof_enable                        1 # Enable gpgpu-sim profiler
-hardware_prefetch                      1 # Enable gpgpu-sim hardware prefetcher
-page_fault_latency                 66645 # Average fault latency (in core cycle).
-enable_accurate_simulation                    0 # Enable page fault functional simulation.
-enable_ptx_file_line_stats                    1 # Turn on PTX source line statistic profiling. (1 = On)
-ptx_line_stats_filename gpgpu_inst_stats.txt # Output file for PTX source line statistics.
-gpgpu_kernel_launch_latency               222150 # Kernel launch latency in cycles. Default: 0
-gpgpu_cdp_enabled                      0 # Turn on CDP
-save_embedded_ptx                      0 # saves ptx files embedded in binary as <n>.ptx
-keep                                   0 # keep intermediate files created by GPGPU-Sim when interfacing with external programs
-gpgpu_ptx_save_converted_ptxplus                    0 # Saved converted ptxplus to a file
-ptx_opcode_latency_int         4,13,4,5,145 # Opcode latencies for integers <ADD,MAX,MUL,MAD,DIV>Default 1,1,19,25,145
-ptx_opcode_latency_fp          4,13,4,5,39 # Opcode latencies for single precision floating points <ADD,MAX,MUL,MAD,DIV>Default 1,1,1,1,30
-ptx_opcode_latency_dp         8,19,8,8,330 # Opcode latencies for double precision floating points <ADD,MAX,MUL,MAD,DIV>Default 8,8,8,8,335
-ptx_opcode_initiation_int            1,2,2,2,8 # Opcode initiation intervals for integers <ADD,MAX,MUL,MAD,DIV>Default 1,1,4,4,32
-ptx_opcode_initiation_fp            1,2,1,1,4 # Opcode initiation intervals for single precision floating points <ADD,MAX,MUL,MAD,DIV>Default 1,1,1,1,5
-ptx_opcode_initiation_dp          1,2,1,1,130 # Opcode initiation intervals for double precision floating points <ADD,MAX,MUL,MAD,DIV>Default 8,8,8,8,130
-cdp_latency         7200,8000,100,12000,1600 # CDP API latency <cudaStreamCreateWithFlags, cudaGetParameterBufferV2_init_perWarp, cudaGetParameterBufferV2_perKernel, cudaLaunchDeviceV2_init_perWarp, cudaLaunchDevicV2_perKernel>Default 7200,8000,100,12000,1600
DRAM Timing Options:
nbk                                    16 # number of banks
CCD                                     2 # column to column delay
RRD                                     6 # minimal delay between activation of rows in different banks
RCD                                    12 # row to column delay
RAS                                    28 # time needed to activate row
RP                                     12 # time needed to precharge (deactivate) row
RC                                     40 # row cycle time
CDLR                                    5 # switching from write to read (changes tWTR)
WR                                     12 # last data-in to row precharge
CL                                     12 # CAS latency
WL                                      4 # Write latency
nbkgrp                                  1 # number of bank groups
CCDL                                    0 # column to column delay between accesses to different bank groups
RTPL                                    0 # read to precharge delay between accesses to different bank groups
Total number of memory sub partition = 22
addr_dec_mask[CHIP]  = 0000000000000000 	high:64 low:0
addr_dec_mask[BK]    = 0000000000007080 	high:15 low:7
addr_dec_mask[ROW]   = 000000000fff8000 	high:28 low:15
addr_dec_mask[COL]   = 0000000000000f7f 	high:12 low:0
addr_dec_mask[BURST] = 000000000000001f 	high:5 low:0
sub_partition_id_mask = 0000000000000080
GPGPU-Sim uArch: clock freqs: 1481000000.000000:2962000000.000000:1481000000.000000:2750000000.000000
GPGPU-Sim uArch: clock periods: 0.00000000067521944632:0.00000000033760972316:0.00000000067521944632:0.00000000036363636364
*** Initializing Memory Statistics ***
GPGPU-Sim uArch: interconnect node map (shaderID+MemID to icntID)
GPGPU-Sim uArch: Memory nodes ID start from index: 28
GPGPU-Sim uArch:    0   1   2   3   4   5   6
GPGPU-Sim uArch:    7   8   9  10  11  12  13
GPGPU-Sim uArch:   14  15  16  17  18  19  20
GPGPU-Sim uArch:   21  22  23  24  25  26  27
GPGPU-Sim uArch:   28  29  30  31  32  33  34
GPGPU-Sim uArch:   35  36  37  38  39  40  41
GPGPU-Sim uArch:   42  43  44  45  46  47  48
GPGPU-Sim uArch:   49
GPGPU-Sim uArch: interconnect node reverse map (icntID to shaderID+MemID)
GPGPU-Sim uArch: Memory nodes start from ID: 28
GPGPU-Sim uArch:    0   1   2   3   4   5   6
GPGPU-Sim uArch:    7   8   9  10  11  12  13
GPGPU-Sim uArch:   14  15  16  17  18  19  20
GPGPU-Sim uArch:   21  22  23  24  25  26  27
GPGPU-Sim uArch:   28  29  30  31  32  33  34
GPGPU-Sim uArch:   35  36  37  38  39  40  41
GPGPU-Sim uArch:   42  43  44  45  46  47  48
GPGPU-Sim uArch:   49
50d5f33e41c3f30cebbc8870f20608c1  /home/gpuser/Documents/gpgpu-sim_UVM_unmanged_managed_withhardware/benchmarks/Unmanaged/stencil/main
GPGPU-Sim uArch: performance model initialization complete.
GPGPU-Sim PTX: __cudaRegisterFatBinary, fat_cubin_handle = 1, filename=default
self exe links to: /home/gpuser/Documents/gpgpu-sim_UVM_unmanged_managed_withhardware/benchmarks/Unmanaged/stencil/main
Running md5sum using "md5sum /home/gpuser/Documents/gpgpu-sim_UVM_unmanged_managed_withhardware/benchmarks/Unmanaged/stencil/main "
Parsing file _cuobjdump_complete_output_AeJzi4
######### cuobjdump parser ########
## Adding new section ELF
Adding arch: sm_20
Adding identifier: default
## Adding new section ELF
Adding arch: sm_20
Adding identifier: default
## Adding new section PTX
Adding ptx filename: _cuobjdump_1.ptx
Adding arch: sm_20
Adding identifier: default
## Adding new section ELF
Adding arch: sm_20
Adding identifier: default
## Adding new section PTX
Adding ptx filename: _cuobjdump_2.ptx
Adding arch: sm_20
Adding identifier: default
Done parsing!!!
GPGPU-Sim PTX: __cudaRegisterFatBinary, fat_cubin_handle = 2, filename=default
GPGPU-Sim PTX: __cudaRegisterFunction _Z24block2D_hybrid_coarsen_xffPfS_iii : hostFun 0x0x40159a, fat_cubin_handle = 2
GPGPU-Sim PTX: allocating shared region for "sh_A0" from 0x0 to 0x0 (shared memory space)
GPGPU-Sim PTX: instruction assembly for function '_Z24block2D_hybrid_coarsen_xffPfS_iii'...   done.
GPGPU-Sim PTX: finding reconvergence points for '_Z24block2D_hybrid_coarsen_xffPfS_iii'...
GPGPU-Sim PTX: Finding dominators for '_Z24block2D_hybrid_coarsen_xffPfS_iii'...
GPGPU-Sim PTX: Finding immediate dominators for '_Z24block2D_hybrid_coarsen_xffPfS_iii'...
GPGPU-Sim PTX: Finding postdominators for '_Z24block2D_hybrid_coarsen_xffPfS_iii'...
GPGPU-Sim PTX: Finding immediate postdominators for '_Z24block2D_hybrid_coarsen_xffPfS_iii'...
GPGPU-Sim PTX: pre-decoding instructions for '_Z24block2D_hybrid_coarsen_xffPfS_iii'...
GPGPU-Sim PTX: reconvergence points for _Z24block2D_hybrid_coarsen_xffPfS_iii...
GPGPU-Sim PTX:  1 (potential) branch divergence @  PC=0x170 (_2.ptx:82) @!%p13 bra BB0_2;
GPGPU-Sim PTX:    immediate post dominator      @  PC=0x200 (_2.ptx:104) mov.f32 %f64, %f69;
GPGPU-Sim PTX:  2 (potential) branch divergence @  PC=0x178 (_2.ptx:83) bra.uni BB0_1;
GPGPU-Sim PTX:    immediate post dominator      @  PC=0x180 (_2.ptx:86) mad.lo.s32 %r33, %r3, %r6, %r1;
GPGPU-Sim PTX:  3 (potential) branch divergence @  PC=0x228 (_2.ptx:109) @!%p16 bra BB0_4;
GPGPU-Sim PTX:    immediate post dominator      @  PC=0x2b0 (_2.ptx:130) mov.f32 %f67, %f68;
GPGPU-Sim PTX:  4 (potential) branch divergence @  PC=0x230 (_2.ptx:110) bra.uni BB0_3;
GPGPU-Sim PTX:    immediate post dominator      @  PC=0x238 (_2.ptx:113) mad.lo.s32 %r58, %r3, %r6, %r2;
GPGPU-Sim PTX:  5 (potential) branch divergence @  PC=0x2d0 (_2.ptx:134) @%p17 bra BB0_33;
GPGPU-Sim PTX:    immediate post dominator      @  PC=0x868 (_2.ptx:370) ret;
GPGPU-Sim PTX:  6 (potential) branch divergence @  PC=0x300 (_2.ptx:143) @!%p13 bra BB0_8;
GPGPU-Sim PTX:    immediate post dominator      @  PC=0x348 (_2.ptx:156) @!%p5 bra BB0_19;
GPGPU-Sim PTX:  7 (potential) branch divergence @  PC=0x308 (_2.ptx:144) bra.uni BB0_7;
GPGPU-Sim PTX:    immediate post dominator      @  PC=0x310 (_2.ptx:147) add.s32 %r75, %r273, 1;
GPGPU-Sim PTX:  8 (potential) branch divergence @  PC=0x348 (_2.ptx:156) @!%p5 bra BB0_19;
GPGPU-Sim PTX:    immediate post dominator      @  PC=0x590 (_2.ptx:251) @!%p16 bra BB0_21;
GPGPU-Sim PTX:  9 (potential) branch divergence @  PC=0x350 (_2.ptx:157) bra.uni BB0_9;
GPGPU-Sim PTX:    immediate post dominator      @  PC=0x358 (_2.ptx:160) add.s32 %r89, %r13, -1;
GPGPU-Sim PTX: 10 (potential) branch divergence @  PC=0x368 (_2.ptx:162) @%p21 bra BB0_11;
GPGPU-Sim PTX:    immediate post dominator      @  PC=0x3e8 (_2.ptx:184) setp.eq.s32%p22, %r15, 0;
GPGPU-Sim PTX: 11 (potential) branch divergence @  PC=0x370 (_2.ptx:163) bra.uni BB0_10;
GPGPU-Sim PTX:    immediate post dominator      @  PC=0x3b8 (_2.ptx:176) shl.b32 %r92, %r11, 1;
GPGPU-Sim PTX: 12 (potential) branch divergence @  PC=0x3b0 (_2.ptx:173) bra.uni BB0_12;
GPGPU-Sim PTX:    immediate post dominator      @  PC=0x3e8 (_2.ptx:184) setp.eq.s32%p22, %r15, 0;
GPGPU-Sim PTX: 13 (potential) branch divergence @  PC=0x3f0 (_2.ptx:185) @%p22 bra BB0_14;
GPGPU-Sim PTX:    immediate post dominator      @  PC=0x470 (_2.ptx:207) setp.eq.s32%p23, %r12, 0;
GPGPU-Sim PTX: 14 (potential) branch divergence @  PC=0x3f8 (_2.ptx:186) bra.uni BB0_13;
GPGPU-Sim PTX:    immediate post dominator      @  PC=0x440 (_2.ptx:199) shl.b32 %r111, %r11, 1;
GPGPU-Sim PTX: 15 (potential) branch divergence @  PC=0x438 (_2.ptx:196) bra.uni BB0_15;
GPGPU-Sim PTX:    immediate post dominator      @  PC=0x470 (_2.ptx:207) setp.eq.s32%p23, %r12, 0;
GPGPU-Sim PTX: 16 (potential) branch divergence @  PC=0x478 (_2.ptx:208) @%p23 bra BB0_17;
GPGPU-Sim PTX:    immediate post dominator      @  PC=0x4f0 (_2.ptx:229) mad.lo.s32 %r149, %r273, %r7, %r3;
GPGPU-Sim PTX: 17 (potential) branch divergence @  PC=0x480 (_2.ptx:209) bra.uni BB0_16;
GPGPU-Sim PTX:    immediate post dominator      @  PC=0x4c8 (_2.ptx:222) shl.b32 %r129, %r11, 1;
GPGPU-Sim PTX: 18 (potential) branch divergence @  PC=0x4c0 (_2.ptx:219) bra.uni BB0_18;
GPGPU-Sim PTX:    immediate post dominator      @  PC=0x4f0 (_2.ptx:229) mad.lo.s32 %r149, %r273, %r7, %r3;
GPGPU-Sim PTX: 19 (potential) branch divergence @  PC=0x590 (_2.ptx:251) @!%p16 bra BB0_21;
GPGPU-Sim PTX:    immediate post dominator      @  PC=0x5d8 (_2.ptx:264) @!%p4 bra BB0_32;
GPGPU-Sim PTX: 20 (potential) branch divergence @  PC=0x598 (_2.ptx:252) bra.uni BB0_20;
GPGPU-Sim PTX:    immediate post dominator      @  PC=0x5a0 (_2.ptx:255) add.s32 %r168, %r273, 1;
GPGPU-Sim PTX: 21 (potential) branch divergence @  PC=0x5d8 (_2.ptx:264) @!%p4 bra BB0_32;
GPGPU-Sim PTX:    immediate post dominator      @  PC=0x820 (_2.ptx:359) bar.sync 0;
GPGPU-Sim PTX: 22 (potential) branch divergence @  PC=0x5e0 (_2.ptx:265) bra.uni BB0_22;
GPGPU-Sim PTX:    immediate post dominator      @  PC=0x5e8 (_2.ptx:268) add.s32 %r183, %r13, -1;
GPGPU-Sim PTX: 23 (potential) branch divergence @  PC=0x5f8 (_2.ptx:270) @%p27 bra BB0_24;
GPGPU-Sim PTX:    immediate post dominator      @  PC=0x678 (_2.ptx:292) setp.eq.s32%p28, %r15, 0;
GPGPU-Sim PTX: 24 (potential) branch divergence @  PC=0x600 (_2.ptx:271) bra.uni BB0_23;
GPGPU-Sim PTX:    immediate post dominator      @  PC=0x648 (_2.ptx:284) shl.b32 %r186, %r11, 1;
GPGPU-Sim PTX: 25 (potential) branch divergence @  PC=0x640 (_2.ptx:281) bra.uni BB0_25;
GPGPU-Sim PTX:    immediate post dominator      @  PC=0x678 (_2.ptx:292) setp.eq.s32%p28, %r15, 0;
GPGPU-Sim PTX: 26 (potential) branch divergence @  PC=0x680 (_2.ptx:293) @%p28 bra BB0_27;
GPGPU-Sim PTX:    immediate post dominator      @  PC=0x700 (_2.ptx:315) shl.b32 %r228, %r11, 1;
GPGPU-Sim PTX: 27 (potential) branch divergence @  PC=0x688 (_2.ptx:294) bra.uni BB0_26;
GPGPU-Sim PTX:    immediate post dominator      @  PC=0x6d0 (_2.ptx:307) shl.b32 %r207, %r11, 1;
GPGPU-Sim PTX: 28 (potential) branch divergence @  PC=0x6c8 (_2.ptx:304) bra.uni BB0_28;
GPGPU-Sim PTX:    immediate post dominator      @  PC=0x700 (_2.ptx:315) shl.b32 %r228, %r11, 1;
GPGPU-Sim PTX: 29 (potential) branch divergence @  PC=0x718 (_2.ptx:318) @%p29 bra BB0_30;
GPGPU-Sim PTX:    immediate post dominator      @  PC=0x788 (_2.ptx:338) mad.lo.s32 %r253, %r273, %r7, %r3;
GPGPU-Sim PTX: 30 (potential) branch divergence @  PC=0x720 (_2.ptx:319) bra.uni BB0_29;
GPGPU-Sim PTX:    immediate post dominator      @  PC=0x768 (_2.ptx:332) mad.lo.s32 %r235, %r228, %r15, %r19;
GPGPU-Sim PTX: 31 (potential) branch divergence @  PC=0x760 (_2.ptx:329) bra.uni BB0_31;
GPGPU-Sim PTX:    immediate post dominator      @  PC=0x788 (_2.ptx:338) mad.lo.s32 %r253, %r273, %r7, %r3;
GPGPU-Sim PTX: 32 (potential) branch divergence @  PC=0x860 (_2.ptx:367) @%p30 bra BB0_6;
GPGPU-Sim PTX:    immediate post dominator      @  PC=0x868 (_2.ptx:370) ret;
GPGPU-Sim PTX: ... end of reconvergence points for _Z24block2D_hybrid_coarsen_xffPfS_iii
GPGPU-Sim PTX: ... done pre-decoding instructions for '_Z24block2D_hybrid_coarsen_xffPfS_iii'.
GPGPU-Sim PTX: finished parsing EMBEDDED .ptx file _2.ptx
Adding _cuobjdump_1.ptx with cubin handle 2
GPGPU-Sim PTX: extracting embedded .ptx to temporary file "_ptx_caEixW"
Running: cat _ptx_caEixW | sed 's/.version 1.5/.version 1.4/' | sed 's/, texmode_independent//' | sed 's/\(\.extern \.const\[1\] .b8 \w\+\)\[\]/\1\[1\]/' | sed 's/const\[.\]/const\[0\]/g' > _ptx2_ba73LO
GPGPU-Sim PTX: generating ptxinfo using "$CUDA_INSTALL_PATH/bin/ptxas --gpu-name=sm_20 -v _ptx2_ba73LO --output-file  /dev/null 2> _ptx_caEixWinfo"
GPGPU-Sim PTX: Kernel '_Z24block2D_hybrid_coarsen_xffPfS_iii' : regs=20, lmem=0, smem=0, cmem=68
GPGPU-Sim PTX: removing ptxinfo using "rm -f _ptx_caEixW _ptx2_ba73LO _ptx_caEixWinfo"
GPGPU-Sim PTX: loading globals with explicit initializers... 
GPGPU-Sim PTX: finished loading globals (0 bytes total).
GPGPU-Sim PTX: loading constants with explicit initializers...  done.
CUDA accelerated 7 points stencil codes****
Original version by Li-Wen Chang <lchang20@illinois.edu> and I-Jui Sung<sung10@illinois.edu>
This version maintained by Chris Rodrigues  ***********

GPGPU-Sim PTX: cudaLaunch for 0x0x40159a (mode=performance simulation) on stream 0
GPGPU-Sim PTX: pushing kernel '_Z24block2D_hybrid_coarsen_xffPfS_iii' to stream 0, gridDim= (2,32,1) blockDim = (32,4,1) 
GPGPU-Sim uArch: Shader 1 bind to kernel 1 '_Z24block2D_hybrid_coarsen_xffPfS_iii'
GPGPU-Sim uArch: CTA/core = 16, limited by: threads
GPGPU-Sim uArch: Shader 2 bind to kernel 1 '_Z24block2D_hybrid_coarsen_xffPfS_iii'
GPGPU-Sim uArch: Shader 3 bind to kernel 1 '_Z24block2D_hybrid_coarsen_xffPfS_iii'
GPGPU-Sim uArch: Shader 4 bind to kernel 1 '_Z24block2D_hybrid_coarsen_xffPfS_iii'
GPGPU-Sim uArch: Shader 5 bind to kernel 1 '_Z24block2D_hybrid_coarsen_xffPfS_iii'
GPGPU-Sim uArch: Shader 6 bind to kernel 1 '_Z24block2D_hybrid_coarsen_xffPfS_iii'
GPGPU-Sim uArch: Shader 7 bind to kernel 1 '_Z24block2D_hybrid_coarsen_xffPfS_iii'
GPGPU-Sim uArch: Shader 8 bind to kernel 1 '_Z24block2D_hybrid_coarsen_xffPfS_iii'
GPGPU-Sim uArch: Shader 9 bind to kernel 1 '_Z24block2D_hybrid_coarsen_xffPfS_iii'
GPGPU-Sim uArch: Shader 10 bind to kernel 1 '_Z24block2D_hybrid_coarsen_xffPfS_iii'
GPGPU-Sim uArch: Shader 11 bind to kernel 1 '_Z24block2D_hybrid_coarsen_xffPfS_iii'
GPGPU-Sim uArch: Shader 12 bind to kernel 1 '_Z24block2D_hybrid_coarsen_xffPfS_iii'
GPGPU-Sim uArch: Shader 13 bind to kernel 1 '_Z24block2D_hybrid_coarsen_xffPfS_iii'
GPGPU-Sim uArch: Shader 14 bind to kernel 1 '_Z24block2D_hybrid_coarsen_xffPfS_iii'
GPGPU-Sim uArch: Shader 15 bind to kernel 1 '_Z24block2D_hybrid_coarsen_xffPfS_iii'
GPGPU-Sim uArch: Shader 16 bind to kernel 1 '_Z24block2D_hybrid_coarsen_xffPfS_iii'
GPGPU-Sim uArch: Shader 17 bind to kernel 1 '_Z24block2D_hybrid_coarsen_xffPfS_iii'
GPGPU-Sim uArch: Shader 18 bind to kernel 1 '_Z24block2D_hybrid_coarsen_xffPfS_iii'
GPGPU-Sim uArch: Shader 19 bind to kernel 1 '_Z24block2D_hybrid_coarsen_xffPfS_iii'
GPGPU-Sim uArch: Shader 20 bind to kernel 1 '_Z24block2D_hybrid_coarsen_xffPfS_iii'
GPGPU-Sim uArch: Shader 21 bind to kernel 1 '_Z24block2D_hybrid_coarsen_xffPfS_iii'
GPGPU-Sim uArch: Shader 22 bind to kernel 1 '_Z24block2D_hybrid_coarsen_xffPfS_iii'
GPGPU-Sim uArch: Shader 23 bind to kernel 1 '_Z24block2D_hybrid_coarsen_xffPfS_iii'
GPGPU-Sim uArch: Shader 24 bind to kernel 1 '_Z24block2D_hybrid_coarsen_xffPfS_iii'
GPGPU-Sim uArch: Shader 25 bind to kernel 1 '_Z24block2D_hybrid_coarsen_xffPfS_iii'
GPGPU-Sim uArch: Shader 26 bind to kernel 1 '_Z24block2D_hybrid_coarsen_xffPfS_iii'
GPGPU-Sim uArch: Shader 27 bind to kernel 1 '_Z24block2D_hybrid_coarsen_xffPfS_iii'
GPGPU-Sim uArch: Shader 0 bind to kernel 1 '_Z24block2D_hybrid_coarsen_xffPfS_iii'
Destroy streams for kernel 1: size 0
kernel_name = _Z24block2D_hybrid_coarsen_xffPfS_iii 
kernel_launch_uid = 1 
gpu_sim_cycle = 42423
gpu_sim_insn = 28848876
gpu_ipc =     680.0291
gpu_tot_sim_cycle = 748735
gpu_tot_sim_insn = 28848876
gpu_tot_ipc =      38.5302
gpu_tot_issued_cta = 64
max_total_param_size = 0
gpu_stall_dramfull = 0
gpu_stall_icnt2sh    = 3636
partiton_reqs_in_parallel = 933306
partiton_reqs_in_parallel_total    = 0
partiton_level_parallism =      22.0000
partiton_level_parallism_total  =       1.2465
partiton_reqs_in_parallel_util = 933306
partiton_reqs_in_parallel_util_total    = 0
gpu_sim_cycle_parition_util = 42423
gpu_tot_sim_cycle_parition_util    = 0
partiton_level_parallism_util =      22.0000
partiton_level_parallism_util_total  =      22.0000
partiton_replys_in_parallel = 47008
partiton_replys_in_parallel_total    = 0
L2_BW  =     105.0281 GB/Sec
L2_BW_total  =       5.9508 GB/Sec
gpu_total_sim_rate=288488

========= Core cache stats =========
L1I_cache:
	L1I_total_cache_accesses = 579228
	L1I_total_cache_misses = 4232
	L1I_total_cache_miss_rate = 0.0073
	L1I_total_cache_pending_hits = 0
	L1I_total_cache_reservation_fails = 0
L1D_cache:
	L1D_cache_core[0]: Access = 0, Miss = 0, Miss_rate = -nan, Pending_hits = 0, Reservation_fails = 0
	L1D_cache_core[1]: Access = 0, Miss = 0, Miss_rate = -nan, Pending_hits = 0, Reservation_fails = 0
	L1D_cache_core[2]: Access = 0, Miss = 0, Miss_rate = -nan, Pending_hits = 0, Reservation_fails = 0
	L1D_cache_core[3]: Access = 0, Miss = 0, Miss_rate = -nan, Pending_hits = 0, Reservation_fails = 0
	L1D_cache_core[4]: Access = 0, Miss = 0, Miss_rate = -nan, Pending_hits = 0, Reservation_fails = 0
	L1D_cache_core[5]: Access = 0, Miss = 0, Miss_rate = -nan, Pending_hits = 0, Reservation_fails = 0
	L1D_cache_core[6]: Access = 0, Miss = 0, Miss_rate = -nan, Pending_hits = 0, Reservation_fails = 0
	L1D_cache_core[7]: Access = 0, Miss = 0, Miss_rate = -nan, Pending_hits = 0, Reservation_fails = 0
	L1D_cache_core[8]: Access = 0, Miss = 0, Miss_rate = -nan, Pending_hits = 0, Reservation_fails = 0
	L1D_cache_core[9]: Access = 0, Miss = 0, Miss_rate = -nan, Pending_hits = 0, Reservation_fails = 0
	L1D_cache_core[10]: Access = 0, Miss = 0, Miss_rate = -nan, Pending_hits = 0, Reservation_fails = 0
	L1D_cache_core[11]: Access = 0, Miss = 0, Miss_rate = -nan, Pending_hits = 0, Reservation_fails = 0
	L1D_cache_core[12]: Access = 0, Miss = 0, Miss_rate = -nan, Pending_hits = 0, Reservation_fails = 0
	L1D_cache_core[13]: Access = 0, Miss = 0, Miss_rate = -nan, Pending_hits = 0, Reservation_fails = 0
	L1D_cache_core[14]: Access = 0, Miss = 0, Miss_rate = -nan, Pending_hits = 0, Reservation_fails = 0
	L1D_cache_core[15]: Access = 0, Miss = 0, Miss_rate = -nan, Pending_hits = 0, Reservation_fails = 0
	L1D_cache_core[16]: Access = 0, Miss = 0, Miss_rate = -nan, Pending_hits = 0, Reservation_fails = 0
	L1D_cache_core[17]: Access = 0, Miss = 0, Miss_rate = -nan, Pending_hits = 0, Reservation_fails = 0
	L1D_cache_core[18]: Access = 0, Miss = 0, Miss_rate = -nan, Pending_hits = 0, Reservation_fails = 0
	L1D_cache_core[19]: Access = 0, Miss = 0, Miss_rate = -nan, Pending_hits = 0, Reservation_fails = 0
	L1D_cache_core[20]: Access = 0, Miss = 0, Miss_rate = -nan, Pending_hits = 0, Reservation_fails = 0
	L1D_cache_core[21]: Access = 0, Miss = 0, Miss_rate = -nan, Pending_hits = 0, Reservation_fails = 0
	L1D_cache_core[22]: Access = 0, Miss = 0, Miss_rate = -nan, Pending_hits = 0, Reservation_fails = 0
	L1D_cache_core[23]: Access = 0, Miss = 0, Miss_rate = -nan, Pending_hits = 0, Reservation_fails = 0
	L1D_cache_core[24]: Access = 0, Miss = 0, Miss_rate = -nan, Pending_hits = 0, Reservation_fails = 0
	L1D_cache_core[25]: Access = 0, Miss = 0, Miss_rate = -nan, Pending_hits = 0, Reservation_fails = 0
	L1D_cache_core[26]: Access = 0, Miss = 0, Miss_rate = -nan, Pending_hits = 0, Reservation_fails = 0
	L1D_cache_core[27]: Access = 0, Miss = 0, Miss_rate = -nan, Pending_hits = 0, Reservation_fails = 0
	L1D_total_cache_accesses = 0
	L1D_total_cache_misses = 0
	L1D_total_cache_pending_hits = 0
	L1D_total_cache_reservation_fails = 0
	L1D_cache_data_port_util = 0.000
	L1D_cache_fill_port_util = 0.000
L1C_cache:
	L1C_total_cache_accesses = 1792
	L1C_total_cache_misses = 1632
	L1C_total_cache_miss_rate = 0.9107
	L1C_total_cache_pending_hits = 0
	L1C_total_cache_reservation_fails = 1444
L1T_cache:
	L1T_total_cache_accesses = 0
	L1T_total_cache_misses = 0
	L1T_total_cache_pending_hits = 0
	L1T_total_cache_reservation_fails = 0

Total_core_cache_stats:
	Total_core_cache_stats_breakdown[GLOBAL_ACC_R][HIT] = 0
	Total_core_cache_stats_breakdown[GLOBAL_ACC_R][HIT_RESERVED] = 0
	Total_core_cache_stats_breakdown[GLOBAL_ACC_R][MISS] = 0
	Total_core_cache_stats_breakdown[GLOBAL_ACC_R][RESERVATION_FAIL] = 0
	Total_core_cache_stats_breakdown[LOCAL_ACC_R][HIT] = 0
	Total_core_cache_stats_breakdown[LOCAL_ACC_R][HIT_RESERVED] = 0
	Total_core_cache_stats_breakdown[LOCAL_ACC_R][MISS] = 0
	Total_core_cache_stats_breakdown[LOCAL_ACC_R][RESERVATION_FAIL] = 0
	Total_core_cache_stats_breakdown[CONST_ACC_R][HIT] = 160
	Total_core_cache_stats_breakdown[CONST_ACC_R][HIT_RESERVED] = 0
	Total_core_cache_stats_breakdown[CONST_ACC_R][MISS] = 1632
	Total_core_cache_stats_breakdown[CONST_ACC_R][RESERVATION_FAIL] = 1444
	Total_core_cache_stats_breakdown[TEXTURE_ACC_R][HIT] = 0
	Total_core_cache_stats_breakdown[TEXTURE_ACC_R][HIT_RESERVED] = 0
	Total_core_cache_stats_breakdown[TEXTURE_ACC_R][MISS] = 0
	Total_core_cache_stats_breakdown[TEXTURE_ACC_R][RESERVATION_FAIL] = 0
	Total_core_cache_stats_breakdown[GLOBAL_ACC_W][HIT] = 0
	Total_core_cache_stats_breakdown[GLOBAL_ACC_W][HIT_RESERVED] = 0
	Total_core_cache_stats_breakdown[GLOBAL_ACC_W][MISS] = 0
	Total_core_cache_stats_breakdown[GLOBAL_ACC_W][RESERVATION_FAIL] = 0
	Total_core_cache_stats_breakdown[LOCAL_ACC_W][HIT] = 0
	Total_core_cache_stats_breakdown[LOCAL_ACC_W][HIT_RESERVED] = 0
	Total_core_cache_stats_breakdown[LOCAL_ACC_W][MISS] = 0
	Total_core_cache_stats_breakdown[LOCAL_ACC_W][RESERVATION_FAIL] = 0
	Total_core_cache_stats_breakdown[L1_WRBK_ACC][HIT] = 0
	Total_core_cache_stats_breakdown[L1_WRBK_ACC][HIT_RESERVED] = 0
	Total_core_cache_stats_breakdown[L1_WRBK_ACC][MISS] = 0
	Total_core_cache_stats_breakdown[L1_WRBK_ACC][RESERVATION_FAIL] = 0
	Total_core_cache_stats_breakdown[L2_WRBK_ACC][HIT] = 0
	Total_core_cache_stats_breakdown[L2_WRBK_ACC][HIT_RESERVED] = 0
	Total_core_cache_stats_breakdown[L2_WRBK_ACC][MISS] = 0
	Total_core_cache_stats_breakdown[L2_WRBK_ACC][RESERVATION_FAIL] = 0
	Total_core_cache_stats_breakdown[INST_ACC_R][HIT] = 574996
	Total_core_cache_stats_breakdown[INST_ACC_R][HIT_RESERVED] = 0
	Total_core_cache_stats_breakdown[INST_ACC_R][MISS] = 4232
	Total_core_cache_stats_breakdown[INST_ACC_R][RESERVATION_FAIL] = 0
	Total_core_cache_stats_breakdown[L1_WR_ALLOC_R][HIT] = 0
	Total_core_cache_stats_breakdown[L1_WR_ALLOC_R][HIT_RESERVED] = 0
	Total_core_cache_stats_breakdown[L1_WR_ALLOC_R][MISS] = 0
	Total_core_cache_stats_breakdown[L1_WR_ALLOC_R][RESERVATION_FAIL] = 0
	Total_core_cache_stats_breakdown[L2_WR_ALLOC_R][HIT] = 0
	Total_core_cache_stats_breakdown[L2_WR_ALLOC_R][HIT_RESERVED] = 0
	Total_core_cache_stats_breakdown[L2_WR_ALLOC_R][MISS] = 0
	Total_core_cache_stats_breakdown[L2_WR_ALLOC_R][RESERVATION_FAIL] = 0
	Total_core_cache_stats_breakdown[CONST_ACC_R][TOTAL_ACCESS] = 1792
	Total_core_cache_stats_breakdown[INST_ACC_R][TOTAL_ACCESS] = 579228
Shader 0 warp_id issue ditsribution:
warp_id:
0, 1, 2, 3, 4, 5, 6, 7, 
distro:
4828, 4646, 4648, 4816, 4828, 4640, 4648, 4815, 
gpgpu_n_tot_thrd_icount = 33319424
gpgpu_n_tot_w_icount = 1041232
gpgpu_n_stall_shd_mem = 1944
gpgpu_n_mem_read_local = 0
gpgpu_n_mem_write_local = 0
gpgpu_n_mem_read_global = 31384
gpgpu_n_mem_write_global = 15120
gpgpu_n_mem_texture = 0
gpgpu_n_mem_const = 28
gpgpu_n_load_insn  = 766208
gpgpu_n_store_insn = 476280
gpgpu_n_shmem_insn = 3155288
gpgpu_n_tex_insn = 0
gpgpu_n_const_mem_insn = 0
gpgpu_n_param_mem_insn = 57344
gpgpu_n_shmem_bkconflict = 0
gpgpu_n_cache_bkconflict = 0
gpgpu_n_intrawarp_mshr_merge = 0
gpgpu_n_cmem_portconflict = 1444
gpgpu_stall_shd_mem[c_mem][bk_conf] = 1444
gpgpu_stall_shd_mem[c_mem][mshr_rc] = 0
gpgpu_stall_shd_mem[c_mem][icnt_rc] = 0
gpgpu_stall_shd_mem[c_mem][data_port_stall] = 0
gpgpu_stall_shd_mem[t_mem][mshr_rc] = 0
gpgpu_stall_shd_mem[t_mem][icnt_rc] = 0
gpgpu_stall_shd_mem[t_mem][data_port_stall] = 0
gpgpu_stall_shd_mem[s_mem][bk_conf] = 0
gpgpu_stall_shd_mem[gl_mem][bk_conf] = 0
gpgpu_stall_shd_mem[gl_mem][coal_stall] = 500
gpgpu_stall_shd_mem[gl_mem][data_port_stall] = 0
gpgpu_stall_shd_mem[g_mem_ld][mshr_rc] = 0
gpgpu_stall_shd_mem[g_mem_ld][icnt_rc] = 0
gpgpu_stall_shd_mem[g_mem_ld][wb_icnt_rc] = 0
gpgpu_stall_shd_mem[g_mem_ld][wb_rsrv_fail] = 0
gpgpu_stall_shd_mem[g_mem_st][mshr_rc] = 0
gpgpu_stall_shd_mem[g_mem_st][icnt_rc] = 0
gpgpu_stall_shd_mem[g_mem_st][wb_icnt_rc] = 0
gpgpu_stall_shd_mem[g_mem_st][wb_rsrv_fail] = 0
gpgpu_stall_shd_mem[l_mem_ld][mshr_rc] = 0
gpgpu_stall_shd_mem[l_mem_ld][icnt_rc] = 0
gpgpu_stall_shd_mem[l_mem_ld][wb_icnt_rc] = 0
gpgpu_stall_shd_mem[l_mem_ld][wb_rsrv_fail] = 0
gpgpu_stall_shd_mem[l_mem_st][mshr_rc] = 0
gpgpu_stall_shd_mem[l_mem_st][icnt_rc] = 0
gpgpu_stall_shd_mem[l_mem_ld][wb_icnt_rc] = 0
gpgpu_stall_shd_mem[l_mem_ld][wb_rsrv_fail] = 0
gpu_reg_bank_conflict_stalls = 0
Warp Occupancy Distribution:
Stall:34199	W0_Idle:218837	W0_Scoreboard:1124505	W1:60480	W2:0	W3:0	W4:0	W5:0	W6:0	W7:0	W8:0	W9:0	W10:0	W11:0	W12:0	W13:0	W14:0	W15:0	W16:0	W17:0	W18:0	W19:0	W20:0	W21:0	W22:0	W23:0	W24:0	W25:0	W26:0	W27:0	W28:0	W29:0	W30:0	W31:408180	W32:572572
traffic_breakdown_coretomem[CONST_ACC_R] = 224 {8:28,}
traffic_breakdown_coretomem[GLOBAL_ACC_R] = 251072 {8:31384,}
traffic_breakdown_coretomem[GLOBAL_ACC_W] = 2056320 {136:15120,}
traffic_breakdown_coretomem[INST_ACC_R] = 3808 {8:476,}
traffic_breakdown_memtocore[CONST_ACC_R] = 2016 {72:28,}
traffic_breakdown_memtocore[GLOBAL_ACC_R] = 3542464 {40:7560,136:23824,}
traffic_breakdown_memtocore[GLOBAL_ACC_W] = 120960 {8:15120,}
traffic_breakdown_memtocore[INST_ACC_R] = 64736 {136:476,}
maxmrqlatency = 346 
maxdqlatency = 0 
maxmflatency = 587 
averagemflatency = 223 
max_icnt2mem_latency = 31 
max_icnt2sh_latency = 748734 
mrq_lat_table:21029 	3867 	2546 	4414 	5451 	4338 	2900 	1759 	338 	0 	0 	0 	0 	0 	0 	0 	0 	0 	0 	0 	0 	0 	0 	0 	0 	0 	0 	0 	0 	0 	0 	0 	
dq_lat_table:0 	0 	0 	0 	0 	0 	0 	0 	0 	0 	0 	0 	0 	0 	0 	0 	0 	0 	0 	0 	0 	0 	0 	0 	0 	0 	0 	0 	0 	0 	0 	0 	
mf_lat_table:0 	0 	0 	0 	0 	0 	0 	32561 	13838 	133 	0 	0 	0 	0 	0 	0 	0 	0 	0 	0 	0 	0 	0 	0 	0 	0 	0 	0 	0 	0 	0 	0 	
icnt2mem_lat_table:0 	0 	44443 	2486 	79 	0 	0 	0 	0 	0 	0 	0 	0 	0 	0 	0 	0 	0 	0 	0 	0 	0 	0 	0 	
icnt2sh_lat_table:0 	0 	25755 	5453 	204 	0 	0 	0 	0 	0 	0 	0 	0 	0 	0 	0 	0 	0 	0 	15120 	0 	0 	0 	0 	
mf_lat_pw_table:0 	0 	0 	0 	0 	0 	0 	75 	7 	0 	0 	0 	0 	0 	0 	0 	0 	0 	0 	0 	0 	0 	0 	0 	0 	0 	0 	0 	0 	0 	0 	0 	
maximum concurrent accesses to same row:
dram[0]:        32        32        32        32        32        32        32        32        32        32        32        32        32        32        32        32 
dram[1]:        32        32        32        32        32        32        32        32        32        32        32        32        32        32        32        32 
dram[2]:        32        32        32        32        32        32        32        32        32        32        32        32        32        32        32        32 
dram[3]:        32        32        32        32        32        32        32        32        32        32        32        32        32        32        32        32 
dram[4]:        32        32        32        32        32        32        32        32        32        32        32        32        32        32        32        32 
dram[5]:        32        32        32        32        32        32        32        32        32        32        32        32        32        32        32        32 
dram[6]:        32        32        32        32        32        32        32        32        32        32        32        32        32        32        32        32 
dram[7]:        32        32        32        32        32        32        32        32        32        32        32        32        32        32        32        32 
dram[8]:        32        32        32        32        32        32        32        32        32        32        32        32        32        32        32        32 
dram[9]:        32        32        32        32        32        32        32        32        32        32        32        32        32        32        32        32 
dram[10]:        32        32        32        32        32        32        32        32        32        32        32        32        32        32        32        32 
maximum service time to same row:
dram[0]:      5221      4772      5224      4794      4775      4792      6240      6817      6276      6890      7488      7571      3954      3868      3801      3888 
dram[1]:      5197      4789      5239      4841      4779      4712      6285      6773      6339      6841      7429      8035      3980      3904      4094      3924 
dram[2]:      5103      4765      5223      4824      4765      4689      6233      6815      6278      6907      7493      8001      3951      3859      4038      3872 
dram[3]:      5151      4674      5265      4875      4807      4731      6277      6764      6329      6815      7420      8028      3984      3924      4081      3927 
dram[4]:      5096      4753      5205      4866      4785      4932      6244      6837      6279      6898      7492      7986      3951      3885      4043      3886 
dram[5]:      5168      4679      5214      4790      4763      4935      6312      6818      6335      6838      7424      8039      3952      3950      4081      3949 
dram[6]:      5121      4773      5154      4847      4782      4698      6258      6864      6266      6912      7487      7995      3878      3903      4121      3841 
dram[7]:      5173      4707      5221      4816      4777      4670      6318      6830      6345      6424      7424      8042      3868      3999      4059      3818 
dram[8]:      5126      4786      5173      4872      4815      4703      6283      6776      6284      6361      7511      8038      3877      4006      4091      3944 
dram[9]:      5191      4731      5223      4805      5097      5025      6229      6827      6359      6918      7418      8052      3880      4010      3967      3978 
dram[10]:      5188      4813      5189      4828      4835      4718      6275      6764      6335      6890      7518      7656      3983      3915      4066      3917 
average row accesses per activate:
dram[0]: 20.214285 20.142857 24.000000 24.000000 21.500000 18.428572 22.909090 22.909090 23.272728 23.272728 21.454546 21.454546 21.750000 21.750000 22.230770 22.230770 
dram[1]: 23.500000 20.142857 23.500000 23.500000 21.833334 21.833334 22.909090 22.909090 23.272728 23.272728 21.454546 21.454546 21.750000 21.750000 22.230770 24.000000 
dram[2]: 24.000000 24.000000 23.500000 23.500000 21.833334 21.833334 22.909090 22.909090 23.272728 23.272728 21.454546 21.454546 21.750000 21.750000 23.500000 23.500000 
dram[3]: 24.000000 24.000000 23.500000 23.500000 21.833334 21.833334 22.909090 22.909090 23.272728 23.272728 21.636364 21.636364 21.750000 21.750000 23.500000 23.500000 
dram[4]: 24.000000 24.000000 23.500000 23.500000 21.333334 18.285715 23.272728 23.272728 23.272728 23.272728 21.636364 21.636364 21.750000 21.750000 21.769230 21.769230 
dram[5]: 20.142857 20.142857 24.000000 24.000000 21.333334 21.333334 23.272728 23.272728 23.272728 23.272728 21.545454 21.545454 21.750000 21.750000 21.769230 21.769230 
dram[6]: 23.500000 20.142857 24.000000 24.000000 21.333334 21.333334 23.272728 23.272728 23.272728 23.272728 21.545454 21.545454 21.416666 21.416666 22.230770 20.642857 
dram[7]: 20.142857 20.142857 24.000000 24.000000 21.333334 21.333334 23.272728 23.272728 22.727272 22.727272 21.909090 21.909090 21.416666 21.416666 22.230770 22.230770 
dram[8]: 23.500000 23.500000 24.000000 24.000000 21.333334 21.333334 23.272728 23.272728 22.727272 22.727272 21.909090 21.909090 21.500000 21.500000 22.230770 22.230770 
dram[9]: 24.000000 20.571428 24.000000 24.000000 21.333334 18.285715 23.272728 23.272728 22.727272 22.727272 21.909090 21.909090 21.500000 21.500000 21.769230 21.769230 
dram[10]: 24.000000 20.571428 24.000000 24.000000 21.333334 21.333334 23.272728 23.272728 22.727272 22.727272 21.363636 21.363636 22.000000 22.000000 20.214285 21.769230 
average row locality = 46642/2091 = 22.306074
number of total memory accesses made:
dram[0]:         0         0         0         0         0         0         0         0         0         0         0         0         0         0         0         0 
dram[1]:         0         0         0         0         0         0         0         0         0         0         0         0         0         0         0         0 
dram[2]:         0         0         0         0         0         0         0         0         0         0         0         0         0         0         0         0 
dram[3]:         0         0         0         0         0         0         0         0         0         0         0         0         0         0         0         0 
dram[4]:         0         0         0         0         0         0         0         0         0         0         0         0         0         0         0         0 
dram[5]:         0         0         0         0         0         0         0         0         0         0         0         0         0         0         0         0 
dram[6]:         0         0         0         0         0         0         0         0         0         0         0         0         0         0         0         0 
dram[7]:         0         0         0         0         0         0         0         0         0         0         0         0         0         0         0         0 
dram[8]:         0         0         0         0         0         0         0         0         0         0         0         0         0         0         0         0 
dram[9]:         0         0         0         0         0         0         0         0         0         0         0         0         0         0         0         0 
dram[10]:         0         0         0         0         0         0         0         0         0         0         0         0         0         0         0         0 
total accesses: 0
min_bank_accesses = 0!
min_chip_accesses = 0!
number of total read accesses:
dram[0]:       190       189       192       192       177       177       174       174       176       176       159       159       174       174       193       193 
dram[1]:       189       189       189       189       179       179       174       174       176       176       159       159       174       174       193       192 
dram[2]:       192       192       189       189       179       179       174       174       176       176       159       159       174       174       189       189 
dram[3]:       192       192       189       189       179       179       174       174       176       176       160       160       174       174       189       189 
dram[4]:       192       192       189       189       176       176       176       176       176       176       160       160       174       174       190       190 
dram[5]:       189       189       192       192       176       176       176       176       176       176       159       159       174       174       190       190 
dram[6]:       189       189       192       192       176       176       176       176       176       176       159       159       172       172       193       193 
dram[7]:       189       189       192       192       176       176       176       176       173       173       161       161       172       172       193       193 
dram[8]:       189       189       192       192       176       176       176       176       173       173       161       161       173       173       193       193 
dram[9]:       192       192       192       192       176       176       176       176       173       173       161       161       173       173       190       190 
dram[10]:       192       192       192       192       176       176       176       176       173       173       158       158       176       176       190       190 
total reads: 31522
bank skew: 193/158 = 1.22
chip skew: 2869/2864 = 1.00
number of total write accesses:
dram[0]:        93        93        96        96        81        81        78        78        80        80        77        77        87        87        96        96 
dram[1]:        93        93        93        93        83        83        78        78        80        80        77        77        87        87        96        96 
dram[2]:        96        96        93        93        83        83        78        78        80        80        77        77        87        87        93        93 
dram[3]:        96        96        93        93        83        83        78        78        80        80        78        78        87        87        93        93 
dram[4]:        96        96        93        93        80        80        80        80        80        80        78        78        87        87        93        93 
dram[5]:        93        93        96        96        80        80        80        80        80        80        78        78        87        87        93        93 
dram[6]:        93        93        96        96        80        80        80        80        80        80        78        78        85        85        96        96 
dram[7]:        93        93        96        96        80        80        80        80        77        77        80        80        85        85        96        96 
dram[8]:        93        93        96        96        80        80        80        80        77        77        80        80        85        85        96        96 
dram[9]:        96        96        96        96        80        80        80        80        77        77        80        80        85        85        93        93 
dram[10]:        96        96        96        96        80        80        80        80        77        77        77        77        88        88        93        93 
total reads: 15120
bank skew: 96/77 = 1.25
chip skew: 1376/1374 = 1.00
average mf latency per bank:
dram[0]:        251       220       223       216       233       228       233       224       222       217       220       216       221       215       220       215
dram[1]:        228       223       222       215       234       230       234       229       220       217       221       216       220       211       218       215
dram[2]:        224       223       223       220       233       230       232       225       222       216       219       218       220       213       220       213
dram[3]:        226       218       222       215       231       228       230       228       221       218       220       216       220       214       218       217
dram[4]:        223       221       223       220       232       228       231       227       225       219       221       218       219       214       218       212
dram[5]:        231       220       221       217       232       228       233       230       223       216       221       215       219       212       216       216
dram[6]:        225       227       224       218       233       226       230       226       222       217       221       219       220       213       220       217
dram[7]:        229       217       221       217       232       229       232       228       222       215       218       218       224       217       216       215
dram[8]:        225       224       223       219       235       225       232       226       222       217       221       217       220       216       220       212
dram[9]:        228       220       223       219       232       229       234       224       224       216       219       216       222       217       221       216
dram[10]:        230       225       223       216       233       226       230       227       221       216       221       216       219       213       222       216
maximum mf latency per bank:
dram[0]:        569       519       476       398       487       464       518       410       364       324       421       335       428       363       535       544
dram[1]:        528       538       393       349       508       505       480       423       375       344       442       392       414       346       518       525
dram[2]:        498       538       413       395       488       438       502       427       356       326       433       357       446       358       536       521
dram[3]:        501       492       392       383       475       462       469       450       442       320       448       364       422       386       511       554
dram[4]:        469       538       396       411       463       437       518       448       405       349       421       348       442       375       562       505
dram[5]:        542       461       403       359       450       405       475       463       403       311       432       358       398       433       521       554
dram[6]:        489       555       398       424       474       421       481       403       411       369       455       383       465       399       587       500
dram[7]:        558       455       428       375       445       460       477       426       448       311       446       392       441       457       526       582
dram[8]:        473       543       430       417       492       416       476       402       414       347       422       347       442       443       579       531
dram[9]:        564       505       429       381       464       438       522       385       425       320       424       366       471       425       567       557
dram[10]:        524       584       421       397       480       437       475       410       423       332       419       373       432       408       570       534
Memory Partition 0: 
Cache L2_bank_000:
MSHR contents

Cache L2_bank_001:
MSHR contents

In Dram Latency Queue (total = 0): 
DRAM[0]: 16 bks, busW=4 BL=8 CL=12, tRRD=2 tCCD=6, tRCD=12 tRAS=28 tRP=12 tRC=40
n_cmd=78772 n_nop=61418 n_act=195 n_pre=179 n_req=4245 n_rd=11476 n_write=5504 bw_util=0.4311
n_activity=56194 dram_eff=0.6043
bk0: 760a 72687i bk1: 756a 72748i bk2: 768a 71921i bk3: 768a 72288i bk4: 708a 72770i bk5: 708a 73049i bk6: 696a 73138i bk7: 696a 73313i bk8: 704a 72510i bk9: 704a 72987i bk10: 636a 73484i bk11: 636a 73535i bk12: 696a 72611i bk13: 696a 72556i bk14: 772a 71746i bk15: 772a 72723i 
dram_util_bins: 0 0 0 0 0 0 0 0 0 0
dram_eff_bins: 0 0 0 0 0 0 0 0 0 0
mrqq: max=35 avg=2.32484
Memory Partition 1: 
Cache L2_bank_002:
MSHR contents

Cache L2_bank_003:
MSHR contents

In Dram Latency Queue (total = 0): 
DRAM[1]: 16 bks, busW=4 BL=8 CL=12, tRRD=2 tCCD=6, tRCD=12 tRAS=28 tRP=12 tRC=40
n_cmd=78772 n_nop=61454 n_act=189 n_pre=173 n_req=4239 n_rd=11460 n_write=5496 bw_util=0.4305
n_activity=55860 dram_eff=0.6071
bk0: 756a 72472i bk1: 756a 72493i bk2: 756a 71824i bk3: 756a 72262i bk4: 716a 73006i bk5: 716a 72866i bk6: 696a 72846i bk7: 696a 72911i bk8: 704a 72912i bk9: 704a 72844i bk10: 636a 73198i bk11: 636a 73699i bk12: 696a 72281i bk13: 696a 72921i bk14: 772a 71973i bk15: 768a 72521i 
dram_util_bins: 0 0 0 0 0 0 0 0 0 0
dram_eff_bins: 0 0 0 0 0 0 0 0 0 0
mrqq: max=28 avg=2.26898
Memory Partition 2: 
Cache L2_bank_004:
MSHR contents

Cache L2_bank_005:
MSHR contents

In Dram Latency Queue (total = 0): 
DRAM[2]: 16 bks, busW=4 BL=8 CL=12, tRRD=2 tCCD=6, tRCD=12 tRAS=28 tRP=12 tRC=40
n_cmd=78772 n_nop=61464 n_act=186 n_pre=170 n_req=4238 n_rd=11456 n_write=5496 bw_util=0.4304
n_activity=55495 dram_eff=0.6109
bk0: 768a 72371i bk1: 768a 72104i bk2: 756a 71599i bk3: 756a 71872i bk4: 716a 72649i bk5: 716a 72768i bk6: 696a 73318i bk7: 696a 73186i bk8: 704a 72770i bk9: 704a 73339i bk10: 636a 73586i bk11: 636a 73452i bk12: 696a 72600i bk13: 696a 72785i bk14: 756a 72262i bk15: 756a 72506i 
dram_util_bins: 0 0 0 0 0 0 0 0 0 0
dram_eff_bins: 0 0 0 0 0 0 0 0 0 0
mrqq: max=29 avg=2.25909
Memory Partition 3: 
Cache L2_bank_006:
MSHR contents

Cache L2_bank_007:
MSHR contents
MSHR: tag=0x803eee80, atomic=0 1 entries : 0x7fecc572c040 :  mf: uid=644087, sid03:w11, part=3, addr=0x803eee80, load , size=128, unknown  status = IN_PARTITION_L2_FILL_QUEUE (748734), 

In Dram Latency Queue (total = 0): 
DRAM[3]: 16 bks, busW=4 BL=8 CL=12, tRRD=2 tCCD=6, tRCD=12 tRAS=28 tRP=12 tRC=40
n_cmd=78772 n_nop=61448 n_act=186 n_pre=170 n_req=4242 n_rd=11464 n_write=5504 bw_util=0.4308
n_activity=55684 dram_eff=0.6094
bk0: 768a 72508i bk1: 768a 72949i bk2: 756a 71957i bk3: 756a 72491i bk4: 716a 73230i bk5: 716a 72809i bk6: 696a 72894i bk7: 696a 72994i bk8: 704a 72900i bk9: 704a 72802i bk10: 640a 73130i bk11: 640a 73370i bk12: 696a 72580i bk13: 696a 72168i bk14: 756a 72216i bk15: 756a 72259i 
dram_util_bins: 0 0 0 0 0 0 0 0 0 0
dram_eff_bins: 0 0 0 0 0 0 0 0 0 0
mrqq: max=27 avg=2.13288
Memory Partition 4: 
Cache L2_bank_008:
MSHR contents

Cache L2_bank_009:
MSHR contents

In Dram Latency Queue (total = 0): 
DRAM[4]: 16 bks, busW=4 BL=8 CL=12, tRRD=2 tCCD=6, tRCD=12 tRAS=28 tRP=12 tRC=40
n_cmd=78772 n_nop=61448 n_act=190 n_pre=174 n_req=4240 n_rd=11464 n_write=5496 bw_util=0.4306
n_activity=55542 dram_eff=0.6107
bk0: 768a 72249i bk1: 768a 72599i bk2: 756a 71847i bk3: 756a 72253i bk4: 704a 73043i bk5: 704a 72962i bk6: 704a 73170i bk7: 704a 73127i bk8: 704a 72619i bk9: 704a 72986i bk10: 640a 73260i bk11: 640a 73350i bk12: 696a 72382i bk13: 696a 72557i bk14: 760a 72218i bk15: 760a 72530i 
dram_util_bins: 0 0 0 0 0 0 0 0 0 0
dram_eff_bins: 0 0 0 0 0 0 0 0 0 0
mrqq: max=28 avg=2.2441
Memory Partition 5: 
Cache L2_bank_010:
MSHR contents

Cache L2_bank_011:
MSHR contents

In Dram Latency Queue (total = 0): 
DRAM[5]: 16 bks, busW=4 BL=8 CL=12, tRRD=2 tCCD=6, tRCD=12 tRAS=28 tRP=12 tRC=40
n_cmd=78772 n_nop=61452 n_act=192 n_pre=176 n_req=4238 n_rd=11456 n_write=5496 bw_util=0.4304
n_activity=55571 dram_eff=0.6101
bk0: 756a 72056i bk1: 756a 72154i bk2: 768a 71998i bk3: 768a 72049i bk4: 704a 72878i bk5: 704a 72666i bk6: 704a 72723i bk7: 704a 72787i bk8: 704a 72697i bk9: 704a 72915i bk10: 636a 73325i bk11: 636a 73774i bk12: 696a 72316i bk13: 696a 72844i bk14: 760a 72287i bk15: 760a 72089i 
dram_util_bins: 0 0 0 0 0 0 0 0 0 0
dram_eff_bins: 0 0 0 0 0 0 0 0 0 0
mrqq: max=29 avg=2.24295
Memory Partition 6: 
Cache L2_bank_012:
MSHR contents

Cache L2_bank_013:
MSHR contents

In Dram Latency Queue (total = 0): 
DRAM[6]: 16 bks, busW=4 BL=8 CL=12, tRRD=2 tCCD=6, tRCD=12 tRAS=28 tRP=12 tRC=40
n_cmd=78772 n_nop=61438 n_act=191 n_pre=175 n_req=4242 n_rd=11464 n_write=5504 bw_util=0.4308
n_activity=55846 dram_eff=0.6077
bk0: 756a 72310i bk1: 756a 72290i bk2: 768a 71471i bk3: 768a 72478i bk4: 704a 72989i bk5: 704a 73474i bk6: 704a 73227i bk7: 704a 73187i bk8: 704a 72754i bk9: 704a 73089i bk10: 636a 73332i bk11: 636a 73503i bk12: 688a 72830i bk13: 688a 72784i bk14: 772a 72311i bk15: 772a 72324i 
dram_util_bins: 0 0 0 0 0 0 0 0 0 0
dram_eff_bins: 0 0 0 0 0 0 0 0 0 0
mrqq: max=33 avg=2.27938
Memory Partition 7: 
Cache L2_bank_014:
MSHR contents

Cache L2_bank_015:
MSHR contents

In Dram Latency Queue (total = 0): 
DRAM[7]: 16 bks, busW=4 BL=8 CL=12, tRRD=2 tCCD=6, tRCD=12 tRAS=28 tRP=12 tRC=40
n_cmd=78772 n_nop=61452 n_act=192 n_pre=176 n_req=4238 n_rd=11456 n_write=5496 bw_util=0.4304
n_activity=55847 dram_eff=0.6071
bk0: 756a 72275i bk1: 756a 72433i bk2: 768a 71929i bk3: 768a 71923i bk4: 704a 72957i bk5: 704a 73218i bk6: 704a 73265i bk7: 704a 72888i bk8: 692a 72845i bk9: 692a 73253i bk10: 644a 73424i bk11: 644a 73161i bk12: 688a 72315i bk13: 688a 72598i bk14: 772a 72378i bk15: 772a 72605i 
dram_util_bins: 0 0 0 0 0 0 0 0 0 0
dram_eff_bins: 0 0 0 0 0 0 0 0 0 0
mrqq: max=32 avg=2.28844
Memory Partition 8: 
Cache L2_bank_016:
MSHR contents

Cache L2_bank_017:
MSHR contents
MSHR: tag=0x803ee880, atomic=0 1 entries : 0x7fecc58d3820 :  mf: uid=644088, sid03:w08, part=8, addr=0x803ee880, load , size=128, unknown  status = IN_PARTITION_DRAM (748734), 

In Dram Latency Queue (total = 0): 
DRAM[8]: 16 bks, busW=4 BL=8 CL=12, tRRD=2 tCCD=6, tRCD=12 tRAS=28 tRP=12 tRC=40
n_cmd=78772 n_nop=61454 n_act=188 n_pre=172 n_req=4240 n_rd=11462 n_write=5496 bw_util=0.4306
n_activity=55600 dram_eff=0.61
bk0: 756a 72429i bk1: 756a 72376i bk2: 768a 71242i bk3: 768a 71969i bk4: 704a 72879i bk5: 702a 73334i bk6: 704a 73059i bk7: 704a 72954i bk8: 692a 72612i bk9: 692a 73121i bk10: 644a 73570i bk11: 644a 73457i bk12: 692a 72723i bk13: 692a 72550i bk14: 772a 72107i bk15: 772a 72548i 
dram_util_bins: 0 0 0 0 0 0 0 0 0 0
dram_eff_bins: 0 0 0 0 0 0 0 0 0 0
mrqq: max=35 avg=2.33
Memory Partition 9: 
Cache L2_bank_018:
MSHR contents

Cache L2_bank_019:
MSHR contents

In Dram Latency Queue (total = 0): 
DRAM[9]: 16 bks, busW=4 BL=8 CL=12, tRRD=2 tCCD=6, tRCD=12 tRAS=28 tRP=12 tRC=40
n_cmd=78772 n_nop=61444 n_act=192 n_pre=176 n_req=4240 n_rd=11464 n_write=5496 bw_util=0.4306
n_activity=55681 dram_eff=0.6092
bk0: 768a 72235i bk1: 768a 72587i bk2: 768a 71787i bk3: 768a 71900i bk4: 704a 73032i bk5: 704a 73046i bk6: 704a 72648i bk7: 704a 73273i bk8: 692a 72591i bk9: 692a 73114i bk10: 644a 73263i bk11: 644a 73585i bk12: 692a 72264i bk13: 692a 72554i bk14: 760a 72334i bk15: 760a 72465i 
dram_util_bins: 0 0 0 0 0 0 0 0 0 0
dram_eff_bins: 0 0 0 0 0 0 0 0 0 0
mrqq: max=34 avg=2.31731
Memory Partition 10: 
Cache L2_bank_020:
MSHR contents

Cache L2_bank_021:
MSHR contents

In Dram Latency Queue (total = 0): 
DRAM[10]: 16 bks, busW=4 BL=8 CL=12, tRRD=2 tCCD=6, tRCD=12 tRAS=28 tRP=12 tRC=40
n_cmd=78772 n_nop=61446 n_act=191 n_pre=175 n_req=4240 n_rd=11464 n_write=5496 bw_util=0.4306
n_activity=55688 dram_eff=0.6091
bk0: 768a 72164i bk1: 768a 72362i bk2: 768a 71610i bk3: 768a 72350i bk4: 704a 73187i bk5: 704a 73455i bk6: 704a 73055i bk7: 704a 72771i bk8: 692a 72976i bk9: 692a 73408i bk10: 632a 73256i bk11: 632a 73682i bk12: 704a 72817i bk13: 704a 72575i bk14: 760a 72139i bk15: 760a 72310i 
dram_util_bins: 0 0 0 0 0 0 0 0 0 0
dram_eff_bins: 0 0 0 0 0 0 0 0 0 0
mrqq: max=34 avg=2.30809

========= L2 cache stats =========
L2_cache_bank[0]: Access = 2170, Miss = 1435, Miss_rate = 0.661, Pending_hits = 57, Reservation_fails = 0
L2_cache_bank[1]: Access = 2143, Miss = 1434, Miss_rate = 0.669, Pending_hits = 16, Reservation_fails = 0
L2_cache_bank[2]: Access = 2142, Miss = 1433, Miss_rate = 0.669, Pending_hits = 7, Reservation_fails = 0
L2_cache_bank[3]: Access = 2113, Miss = 1432, Miss_rate = 0.678, Pending_hits = 4, Reservation_fails = 0
L2_cache_bank[4]: Access = 2112, Miss = 1432, Miss_rate = 0.678, Pending_hits = 3, Reservation_fails = 0
L2_cache_bank[5]: Access = 2113, Miss = 1432, Miss_rate = 0.678, Pending_hits = 3, Reservation_fails = 0
L2_cache_bank[6]: Access = 2116, Miss = 1433, Miss_rate = 0.677, Pending_hits = 3, Reservation_fails = 0
L2_cache_bank[7]: Access = 2116, Miss = 1433, Miss_rate = 0.677, Pending_hits = 3, Reservation_fails = 0
L2_cache_bank[8]: Access = 2142, Miss = 1433, Miss_rate = 0.669, Pending_hits = 30, Reservation_fails = 0
L2_cache_bank[9]: Access = 2141, Miss = 1433, Miss_rate = 0.669, Pending_hits = 30, Reservation_fails = 0
L2_cache_bank[10]: Access = 2140, Miss = 1432, Miss_rate = 0.669, Pending_hits = 28, Reservation_fails = 0
L2_cache_bank[11]: Access = 2141, Miss = 1432, Miss_rate = 0.669, Pending_hits = 29, Reservation_fails = 0
L2_cache_bank[12]: Access = 2144, Miss = 1433, Miss_rate = 0.668, Pending_hits = 30, Reservation_fails = 0
L2_cache_bank[13]: Access = 2144, Miss = 1433, Miss_rate = 0.668, Pending_hits = 30, Reservation_fails = 0
L2_cache_bank[14]: Access = 2141, Miss = 1432, Miss_rate = 0.669, Pending_hits = 30, Reservation_fails = 0
L2_cache_bank[15]: Access = 2140, Miss = 1432, Miss_rate = 0.669, Pending_hits = 30, Reservation_fails = 0
L2_cache_bank[16]: Access = 2141, Miss = 1433, Miss_rate = 0.669, Pending_hits = 29, Reservation_fails = 0
L2_cache_bank[17]: Access = 2142, Miss = 1433, Miss_rate = 0.669, Pending_hits = 29, Reservation_fails = 0
L2_cache_bank[18]: Access = 2143, Miss = 1433, Miss_rate = 0.669, Pending_hits = 17, Reservation_fails = 0
L2_cache_bank[19]: Access = 2143, Miss = 1433, Miss_rate = 0.669, Pending_hits = 7, Reservation_fails = 0
L2_cache_bank[20]: Access = 2141, Miss = 1433, Miss_rate = 0.669, Pending_hits = 12, Reservation_fails = 0
L2_cache_bank[21]: Access = 2140, Miss = 1433, Miss_rate = 0.670, Pending_hits = 30, Reservation_fails = 0
L2_total_cache_accesses = 47008
L2_total_cache_misses = 31522
L2_total_cache_miss_rate = 0.6706
L2_total_cache_pending_hits = 457
L2_total_cache_reservation_fails = 0
L2_total_cache_breakdown:
	L2_cache_stats_breakdown[GLOBAL_ACC_R][HIT] = 14935
	L2_cache_stats_breakdown[GLOBAL_ACC_R][HIT_RESERVED] = 65
	L2_cache_stats_breakdown[GLOBAL_ACC_R][MISS] = 16384
	L2_cache_stats_breakdown[GLOBAL_ACC_R][RESERVATION_FAIL] = 0
	L2_cache_stats_breakdown[LOCAL_ACC_R][HIT] = 0
	L2_cache_stats_breakdown[LOCAL_ACC_R][HIT_RESERVED] = 0
	L2_cache_stats_breakdown[LOCAL_ACC_R][MISS] = 0
	L2_cache_stats_breakdown[LOCAL_ACC_R][RESERVATION_FAIL] = 0
	L2_cache_stats_breakdown[CONST_ACC_R][HIT] = 0
	L2_cache_stats_breakdown[CONST_ACC_R][HIT_RESERVED] = 27
	L2_cache_stats_breakdown[CONST_ACC_R][MISS] = 1
	L2_cache_stats_breakdown[CONST_ACC_R][RESERVATION_FAIL] = 0
	L2_cache_stats_breakdown[TEXTURE_ACC_R][HIT] = 0
	L2_cache_stats_breakdown[TEXTURE_ACC_R][HIT_RESERVED] = 0
	L2_cache_stats_breakdown[TEXTURE_ACC_R][MISS] = 0
	L2_cache_stats_breakdown[TEXTURE_ACC_R][RESERVATION_FAIL] = 0
	L2_cache_stats_breakdown[GLOBAL_ACC_W][HIT] = 0
	L2_cache_stats_breakdown[GLOBAL_ACC_W][HIT_RESERVED] = 0
	L2_cache_stats_breakdown[GLOBAL_ACC_W][MISS] = 15120
	L2_cache_stats_breakdown[GLOBAL_ACC_W][RESERVATION_FAIL] = 0
	L2_cache_stats_breakdown[LOCAL_ACC_W][HIT] = 0
	L2_cache_stats_breakdown[LOCAL_ACC_W][HIT_RESERVED] = 0
	L2_cache_stats_breakdown[LOCAL_ACC_W][MISS] = 0
	L2_cache_stats_breakdown[LOCAL_ACC_W][RESERVATION_FAIL] = 0
	L2_cache_stats_breakdown[L1_WRBK_ACC][HIT] = 0
	L2_cache_stats_breakdown[L1_WRBK_ACC][HIT_RESERVED] = 0
	L2_cache_stats_breakdown[L1_WRBK_ACC][MISS] = 0
	L2_cache_stats_breakdown[L1_WRBK_ACC][RESERVATION_FAIL] = 0
	L2_cache_stats_breakdown[L2_WRBK_ACC][HIT] = 0
	L2_cache_stats_breakdown[L2_WRBK_ACC][HIT_RESERVED] = 0
	L2_cache_stats_breakdown[L2_WRBK_ACC][MISS] = 0
	L2_cache_stats_breakdown[L2_WRBK_ACC][RESERVATION_FAIL] = 0
	L2_cache_stats_breakdown[INST_ACC_R][HIT] = 94
	L2_cache_stats_breakdown[INST_ACC_R][HIT_RESERVED] = 365
	L2_cache_stats_breakdown[INST_ACC_R][MISS] = 17
	L2_cache_stats_breakdown[INST_ACC_R][RESERVATION_FAIL] = 0
	L2_cache_stats_breakdown[L1_WR_ALLOC_R][HIT] = 0
	L2_cache_stats_breakdown[L1_WR_ALLOC_R][HIT_RESERVED] = 0
	L2_cache_stats_breakdown[L1_WR_ALLOC_R][MISS] = 0
	L2_cache_stats_breakdown[L1_WR_ALLOC_R][RESERVATION_FAIL] = 0
	L2_cache_stats_breakdown[L2_WR_ALLOC_R][HIT] = 0
	L2_cache_stats_breakdown[L2_WR_ALLOC_R][HIT_RESERVED] = 0
	L2_cache_stats_breakdown[L2_WR_ALLOC_R][MISS] = 0
	L2_cache_stats_breakdown[L2_WR_ALLOC_R][RESERVATION_FAIL] = 0
	L2_cache_stats_breakdown[GLOBAL_ACC_R][TOTAL_ACCESS] = 31384
	L2_cache_stats_breakdown[CONST_ACC_R][TOTAL_ACCESS] = 28
	L2_cache_stats_breakdown[GLOBAL_ACC_W][TOTAL_ACCESS] = 15120
	L2_cache_stats_breakdown[INST_ACC_R][TOTAL_ACCESS] = 476
L2_cache_data_port_util = 0.040
L2_cache_fill_port_util = 0.135

icnt_total_pkts_mem_to_simt=151824
icnt_total_pkts_simt_to_mem=107488
LD_mem_lat_dist  0 0 0 0 0 0 0 0 0 0 0 0 0 0 0 0 0 0 0 0 0 0 0 0 0 0 0
ST_mem_lat_dist  0 0 0 0 0 0 0 0 0 0 0 0 0 0 0 0 0 0 0 0 0 0 0 0 0 0 0
----------------------------Interconnect-DETAILS--------------------------------
Class 0:
Packet latency average = 8.75433
	minimum = 6
	maximum = 60
Network latency average = 8.5655
	minimum = 6
	maximum = 60
Slowest packet = 27
Flit latency average = 7.09694
	minimum = 6
	maximum = 60
Slowest flit = 27
Fragmentation average = 0
	minimum = 0
	maximum = 0
Injected packet rate average = 0.0221621
	minimum = 0.0175616 (at node 0)
	maximum = 0.0262364 (at node 3)
Accepted packet rate average = 0.0221621
	minimum = 0.0175616 (at node 0)
	maximum = 0.0262364 (at node 3)
Injected flit rate average = 0.0611268
	minimum = 0.0401914 (at node 0)
	maximum = 0.0826576 (at node 28)
Accepted flit rate average= 0.0611268
	minimum = 0.0566687 (at node 0)
	maximum = 0.0844845 (at node 3)
Injected packet length average = 2.75817
Accepted packet length average = 2.75817
Total in-flight flits = 0 (0 measured)
====== Overall Traffic Statistics ======
====== Traffic class 0 ======
Packet latency average = 8.75433 (1 samples)
	minimum = 6 (1 samples)
	maximum = 60 (1 samples)
Network latency average = 8.5655 (1 samples)
	minimum = 6 (1 samples)
	maximum = 60 (1 samples)
Flit latency average = 7.09694 (1 samples)
	minimum = 6 (1 samples)
	maximum = 60 (1 samples)
Fragmentation average = 0 (1 samples)
	minimum = 0 (1 samples)
	maximum = 0 (1 samples)
Injected packet rate average = 0.0221621 (1 samples)
	minimum = 0.0175616 (1 samples)
	maximum = 0.0262364 (1 samples)
Accepted packet rate average = 0.0221621 (1 samples)
	minimum = 0.0175616 (1 samples)
	maximum = 0.0262364 (1 samples)
Injected flit rate average = 0.0611268 (1 samples)
	minimum = 0.0401914 (1 samples)
	maximum = 0.0826576 (1 samples)
Accepted flit rate average = 0.0611268 (1 samples)
	minimum = 0.0566687 (1 samples)
	maximum = 0.0844845 (1 samples)
Injected packet size average = 2.75817 (1 samples)
Accepted packet size average = 2.75817 (1 samples)
Hops average = 1 (1 samples)
----------------------------END-of-Interconnect-DETAILS-------------------------


gpgpu_simulation_time = 0 days, 0 hrs, 1 min, 40 sec (100 sec)
gpgpu_simulation_rate = 288488 (inst/sec)
gpgpu_simulation_rate = 7487 (cycle/sec)

GPGPU-Sim PTX: cudaLaunch for 0x0x40159a (mode=performance simulation) on stream 0
GPGPU-Sim PTX: pushing kernel '_Z24block2D_hybrid_coarsen_xffPfS_iii' to stream 0, gridDim= (2,32,1) blockDim = (32,4,1) 
GPGPU-Sim uArch: Shader 9 bind to kernel 2 '_Z24block2D_hybrid_coarsen_xffPfS_iii'
GPGPU-Sim uArch: Shader 10 bind to kernel 2 '_Z24block2D_hybrid_coarsen_xffPfS_iii'
GPGPU-Sim uArch: Shader 11 bind to kernel 2 '_Z24block2D_hybrid_coarsen_xffPfS_iii'
GPGPU-Sim uArch: Shader 12 bind to kernel 2 '_Z24block2D_hybrid_coarsen_xffPfS_iii'
GPGPU-Sim uArch: Shader 13 bind to kernel 2 '_Z24block2D_hybrid_coarsen_xffPfS_iii'
GPGPU-Sim uArch: Shader 14 bind to kernel 2 '_Z24block2D_hybrid_coarsen_xffPfS_iii'
GPGPU-Sim uArch: Shader 15 bind to kernel 2 '_Z24block2D_hybrid_coarsen_xffPfS_iii'
GPGPU-Sim uArch: Shader 16 bind to kernel 2 '_Z24block2D_hybrid_coarsen_xffPfS_iii'
GPGPU-Sim uArch: Shader 17 bind to kernel 2 '_Z24block2D_hybrid_coarsen_xffPfS_iii'
GPGPU-Sim uArch: Shader 18 bind to kernel 2 '_Z24block2D_hybrid_coarsen_xffPfS_iii'
GPGPU-Sim uArch: Shader 19 bind to kernel 2 '_Z24block2D_hybrid_coarsen_xffPfS_iii'
GPGPU-Sim uArch: Shader 20 bind to kernel 2 '_Z24block2D_hybrid_coarsen_xffPfS_iii'
GPGPU-Sim uArch: Shader 21 bind to kernel 2 '_Z24block2D_hybrid_coarsen_xffPfS_iii'
GPGPU-Sim uArch: Shader 22 bind to kernel 2 '_Z24block2D_hybrid_coarsen_xffPfS_iii'
GPGPU-Sim uArch: Shader 23 bind to kernel 2 '_Z24block2D_hybrid_coarsen_xffPfS_iii'
GPGPU-Sim uArch: Shader 24 bind to kernel 2 '_Z24block2D_hybrid_coarsen_xffPfS_iii'
GPGPU-Sim uArch: Shader 25 bind to kernel 2 '_Z24block2D_hybrid_coarsen_xffPfS_iii'
GPGPU-Sim uArch: Shader 26 bind to kernel 2 '_Z24block2D_hybrid_coarsen_xffPfS_iii'
GPGPU-Sim uArch: Shader 27 bind to kernel 2 '_Z24block2D_hybrid_coarsen_xffPfS_iii'
GPGPU-Sim uArch: Shader 0 bind to kernel 2 '_Z24block2D_hybrid_coarsen_xffPfS_iii'
GPGPU-Sim uArch: Shader 1 bind to kernel 2 '_Z24block2D_hybrid_coarsen_xffPfS_iii'
GPGPU-Sim uArch: Shader 2 bind to kernel 2 '_Z24block2D_hybrid_coarsen_xffPfS_iii'
GPGPU-Sim uArch: Shader 3 bind to kernel 2 '_Z24block2D_hybrid_coarsen_xffPfS_iii'
GPGPU-Sim uArch: Shader 4 bind to kernel 2 '_Z24block2D_hybrid_coarsen_xffPfS_iii'
GPGPU-Sim uArch: Shader 5 bind to kernel 2 '_Z24block2D_hybrid_coarsen_xffPfS_iii'
GPGPU-Sim uArch: Shader 6 bind to kernel 2 '_Z24block2D_hybrid_coarsen_xffPfS_iii'
GPGPU-Sim uArch: Shader 7 bind to kernel 2 '_Z24block2D_hybrid_coarsen_xffPfS_iii'
GPGPU-Sim uArch: Shader 8 bind to kernel 2 '_Z24block2D_hybrid_coarsen_xffPfS_iii'
Destroy streams for kernel 2: size 0
kernel_name = _Z24block2D_hybrid_coarsen_xffPfS_iii 
kernel_launch_uid = 2 
gpu_sim_cycle = 39109
gpu_sim_insn = 28848876
gpu_ipc =     737.6531
gpu_tot_sim_cycle = 1009994
gpu_tot_sim_insn = 57697752
gpu_tot_ipc =      57.1268
gpu_tot_issued_cta = 128
max_total_param_size = 0
gpu_stall_dramfull = 0
gpu_stall_icnt2sh    = 3895
partiton_reqs_in_parallel = 860398
partiton_reqs_in_parallel_total    = 933306
partiton_level_parallism =      22.0000
partiton_level_parallism_total  =       1.7760
partiton_reqs_in_parallel_util = 860398
partiton_reqs_in_parallel_util_total    = 933306
gpu_sim_cycle_parition_util = 39109
gpu_tot_sim_cycle_parition_util    = 42423
partiton_level_parallism_util =      22.0000
partiton_level_parallism_util_total  =      22.0000
partiton_replys_in_parallel = 46504
partiton_replys_in_parallel_total    = 47008
L2_BW  =     112.7064 GB/Sec
L2_BW_total  =       8.7757 GB/Sec
gpu_total_sim_rate=297411

========= Core cache stats =========
L1I_cache:
	L1I_total_cache_accesses = 1158456
	L1I_total_cache_misses = 4232
	L1I_total_cache_miss_rate = 0.0037
	L1I_total_cache_pending_hits = 0
	L1I_total_cache_reservation_fails = 0
L1D_cache:
	L1D_cache_core[0]: Access = 0, Miss = 0, Miss_rate = -nan, Pending_hits = 0, Reservation_fails = 0
	L1D_cache_core[1]: Access = 0, Miss = 0, Miss_rate = -nan, Pending_hits = 0, Reservation_fails = 0
	L1D_cache_core[2]: Access = 0, Miss = 0, Miss_rate = -nan, Pending_hits = 0, Reservation_fails = 0
	L1D_cache_core[3]: Access = 0, Miss = 0, Miss_rate = -nan, Pending_hits = 0, Reservation_fails = 0
	L1D_cache_core[4]: Access = 0, Miss = 0, Miss_rate = -nan, Pending_hits = 0, Reservation_fails = 0
	L1D_cache_core[5]: Access = 0, Miss = 0, Miss_rate = -nan, Pending_hits = 0, Reservation_fails = 0
	L1D_cache_core[6]: Access = 0, Miss = 0, Miss_rate = -nan, Pending_hits = 0, Reservation_fails = 0
	L1D_cache_core[7]: Access = 0, Miss = 0, Miss_rate = -nan, Pending_hits = 0, Reservation_fails = 0
	L1D_cache_core[8]: Access = 0, Miss = 0, Miss_rate = -nan, Pending_hits = 0, Reservation_fails = 0
	L1D_cache_core[9]: Access = 0, Miss = 0, Miss_rate = -nan, Pending_hits = 0, Reservation_fails = 0
	L1D_cache_core[10]: Access = 0, Miss = 0, Miss_rate = -nan, Pending_hits = 0, Reservation_fails = 0
	L1D_cache_core[11]: Access = 0, Miss = 0, Miss_rate = -nan, Pending_hits = 0, Reservation_fails = 0
	L1D_cache_core[12]: Access = 0, Miss = 0, Miss_rate = -nan, Pending_hits = 0, Reservation_fails = 0
	L1D_cache_core[13]: Access = 0, Miss = 0, Miss_rate = -nan, Pending_hits = 0, Reservation_fails = 0
	L1D_cache_core[14]: Access = 0, Miss = 0, Miss_rate = -nan, Pending_hits = 0, Reservation_fails = 0
	L1D_cache_core[15]: Access = 0, Miss = 0, Miss_rate = -nan, Pending_hits = 0, Reservation_fails = 0
	L1D_cache_core[16]: Access = 0, Miss = 0, Miss_rate = -nan, Pending_hits = 0, Reservation_fails = 0
	L1D_cache_core[17]: Access = 0, Miss = 0, Miss_rate = -nan, Pending_hits = 0, Reservation_fails = 0
	L1D_cache_core[18]: Access = 0, Miss = 0, Miss_rate = -nan, Pending_hits = 0, Reservation_fails = 0
	L1D_cache_core[19]: Access = 0, Miss = 0, Miss_rate = -nan, Pending_hits = 0, Reservation_fails = 0
	L1D_cache_core[20]: Access = 0, Miss = 0, Miss_rate = -nan, Pending_hits = 0, Reservation_fails = 0
	L1D_cache_core[21]: Access = 0, Miss = 0, Miss_rate = -nan, Pending_hits = 0, Reservation_fails = 0
	L1D_cache_core[22]: Access = 0, Miss = 0, Miss_rate = -nan, Pending_hits = 0, Reservation_fails = 0
	L1D_cache_core[23]: Access = 0, Miss = 0, Miss_rate = -nan, Pending_hits = 0, Reservation_fails = 0
	L1D_cache_core[24]: Access = 0, Miss = 0, Miss_rate = -nan, Pending_hits = 0, Reservation_fails = 0
	L1D_cache_core[25]: Access = 0, Miss = 0, Miss_rate = -nan, Pending_hits = 0, Reservation_fails = 0
	L1D_cache_core[26]: Access = 0, Miss = 0, Miss_rate = -nan, Pending_hits = 0, Reservation_fails = 0
	L1D_cache_core[27]: Access = 0, Miss = 0, Miss_rate = -nan, Pending_hits = 0, Reservation_fails = 0
	L1D_total_cache_accesses = 0
	L1D_total_cache_misses = 0
	L1D_total_cache_pending_hits = 0
	L1D_total_cache_reservation_fails = 0
	L1D_cache_data_port_util = 0.000
	L1D_cache_fill_port_util = 0.000
L1C_cache:
	L1C_total_cache_accesses = 3584
	L1C_total_cache_misses = 1632
	L1C_total_cache_miss_rate = 0.4554
	L1C_total_cache_pending_hits = 0
	L1C_total_cache_reservation_fails = 1444
L1T_cache:
	L1T_total_cache_accesses = 0
	L1T_total_cache_misses = 0
	L1T_total_cache_pending_hits = 0
	L1T_total_cache_reservation_fails = 0

Total_core_cache_stats:
	Total_core_cache_stats_breakdown[GLOBAL_ACC_R][HIT] = 0
	Total_core_cache_stats_breakdown[GLOBAL_ACC_R][HIT_RESERVED] = 0
	Total_core_cache_stats_breakdown[GLOBAL_ACC_R][MISS] = 0
	Total_core_cache_stats_breakdown[GLOBAL_ACC_R][RESERVATION_FAIL] = 0
	Total_core_cache_stats_breakdown[LOCAL_ACC_R][HIT] = 0
	Total_core_cache_stats_breakdown[LOCAL_ACC_R][HIT_RESERVED] = 0
	Total_core_cache_stats_breakdown[LOCAL_ACC_R][MISS] = 0
	Total_core_cache_stats_breakdown[LOCAL_ACC_R][RESERVATION_FAIL] = 0
	Total_core_cache_stats_breakdown[CONST_ACC_R][HIT] = 1952
[...]
L2_cache_bank[6]: Access = 84640, Miss = 57300, Miss_rate = 0.677, Pending_hits = 179, Reservation_fails = 0
L2_cache_bank[7]: Access = 84640, Miss = 57300, Miss_rate = 0.677, Pending_hits = 231, Reservation_fails = 0
L2_cache_bank[8]: Access = 84568, Miss = 57261, Miss_rate = 0.677, Pending_hits = 191, Reservation_fails = 0
L2_cache_bank[9]: Access = 84528, Miss = 57261, Miss_rate = 0.677, Pending_hits = 249, Reservation_fails = 0
L2_cache_bank[10]: Access = 84528, Miss = 57261, Miss_rate = 0.677, Pending_hits = 179, Reservation_fails = 1
L2_cache_bank[11]: Access = 84568, Miss = 57261, Miss_rate = 0.677, Pending_hits = 245, Reservation_fails = 0
L2_cache_bank[12]: Access = 84668, Miss = 57301, Miss_rate = 0.677, Pending_hits = 212, Reservation_fails = 0
L2_cache_bank[13]: Access = 84668, Miss = 57301, Miss_rate = 0.677, Pending_hits = 269, Reservation_fails = 0
L2_cache_bank[14]: Access = 84548, Miss = 57261, Miss_rate = 0.677, Pending_hits = 193, Reservation_fails = 0
L2_cache_bank[15]: Access = 84508, Miss = 57261, Miss_rate = 0.678, Pending_hits = 264, Reservation_fails = 0
L2_cache_bank[16]: Access = 84548, Miss = 57281, Miss_rate = 0.677, Pending_hits = 190, Reservation_fails = 0
L2_cache_bank[17]: Access = 84588, Miss = 57281, Miss_rate = 0.677, Pending_hits = 256, Reservation_fails = 0
L2_cache_bank[18]: Access = 84628, Miss = 57301, Miss_rate = 0.677, Pending_hits = 207, Reservation_fails = 0
L2_cache_bank[19]: Access = 84608, Miss = 57301, Miss_rate = 0.677, Pending_hits = 253, Reservation_fails = 0
L2_cache_bank[20]: Access = 84528, Miss = 57281, Miss_rate = 0.678, Pending_hits = 178, Reservation_fails = 0
L2_cache_bank[21]: Access = 84528, Miss = 57281, Miss_rate = 0.678, Pending_hits = 249, Reservation_fails = 0
L2_total_cache_accesses = 1860664
L2_total_cache_misses = 1260178
L2_total_cache_miss_rate = 0.6773
L2_total_cache_pending_hits = 4832
L2_total_cache_reservation_fails = 1
L2_total_cache_breakdown:
	L2_cache_stats_breakdown[GLOBAL_ACC_R][HIT] = 595560
	L2_cache_stats_breakdown[GLOBAL_ACC_R][HIT_RESERVED] = 4440
	L2_cache_stats_breakdown[GLOBAL_ACC_R][MISS] = 655360
	L2_cache_stats_breakdown[GLOBAL_ACC_R][RESERVATION_FAIL] = 0
	L2_cache_stats_breakdown[LOCAL_ACC_R][HIT] = 0
	L2_cache_stats_breakdown[LOCAL_ACC_R][HIT_RESERVED] = 0
	L2_cache_stats_breakdown[LOCAL_ACC_R][MISS] = 0
	L2_cache_stats_breakdown[LOCAL_ACC_R][RESERVATION_FAIL] = 0
	L2_cache_stats_breakdown[CONST_ACC_R][HIT] = 0
	L2_cache_stats_breakdown[CONST_ACC_R][HIT_RESERVED] = 27
	L2_cache_stats_breakdown[CONST_ACC_R][MISS] = 1
	L2_cache_stats_breakdown[CONST_ACC_R][RESERVATION_FAIL] = 0
	L2_cache_stats_breakdown[TEXTURE_ACC_R][HIT] = 0
	L2_cache_stats_breakdown[TEXTURE_ACC_R][HIT_RESERVED] = 0
	L2_cache_stats_breakdown[TEXTURE_ACC_R][MISS] = 0
	L2_cache_stats_breakdown[TEXTURE_ACC_R][RESERVATION_FAIL] = 0
	L2_cache_stats_breakdown[GLOBAL_ACC_W][HIT] = 0
	L2_cache_stats_breakdown[GLOBAL_ACC_W][HIT_RESERVED] = 0
	L2_cache_stats_breakdown[GLOBAL_ACC_W][MISS] = 604800
	L2_cache_stats_breakdown[GLOBAL_ACC_W][RESERVATION_FAIL] = 1
	L2_cache_stats_breakdown[LOCAL_ACC_W][HIT] = 0
	L2_cache_stats_breakdown[LOCAL_ACC_W][HIT_RESERVED] = 0
	L2_cache_stats_breakdown[LOCAL_ACC_W][MISS] = 0
	L2_cache_stats_breakdown[LOCAL_ACC_W][RESERVATION_FAIL] = 0
	L2_cache_stats_breakdown[L1_WRBK_ACC][HIT] = 0
	L2_cache_stats_breakdown[L1_WRBK_ACC][HIT_RESERVED] = 0
	L2_cache_stats_breakdown[L1_WRBK_ACC][MISS] = 0
	L2_cache_stats_breakdown[L1_WRBK_ACC][RESERVATION_FAIL] = 0
	L2_cache_stats_breakdown[L2_WRBK_ACC][HIT] = 0
	L2_cache_stats_breakdown[L2_WRBK_ACC][HIT_RESERVED] = 0
	L2_cache_stats_breakdown[L2_WRBK_ACC][MISS] = 0
	L2_cache_stats_breakdown[L2_WRBK_ACC][RESERVATION_FAIL] = 0
	L2_cache_stats_breakdown[INST_ACC_R][HIT] = 94
	L2_cache_stats_breakdown[INST_ACC_R][HIT_RESERVED] = 365
	L2_cache_stats_breakdown[INST_ACC_R][MISS] = 17
	L2_cache_stats_breakdown[INST_ACC_R][RESERVATION_FAIL] = 0
	L2_cache_stats_breakdown[L1_WR_ALLOC_R][HIT] = 0
	L2_cache_stats_breakdown[L1_WR_ALLOC_R][HIT_RESERVED] = 0
	L2_cache_stats_breakdown[L1_WR_ALLOC_R][MISS] = 0
	L2_cache_stats_breakdown[L1_WR_ALLOC_R][RESERVATION_FAIL] = 0
	L2_cache_stats_breakdown[L2_WR_ALLOC_R][HIT] = 0
	L2_cache_stats_breakdown[L2_WR_ALLOC_R][HIT_RESERVED] = 0
	L2_cache_stats_breakdown[L2_WR_ALLOC_R][MISS] = 0
	L2_cache_stats_breakdown[L2_WR_ALLOC_R][RESERVATION_FAIL] = 0
	L2_cache_stats_breakdown[GLOBAL_ACC_R][TOTAL_ACCESS] = 1255360
	L2_cache_stats_breakdown[CONST_ACC_R][TOTAL_ACCESS] = 28
	L2_cache_stats_breakdown[GLOBAL_ACC_W][TOTAL_ACCESS] = 604800
	L2_cache_stats_breakdown[INST_ACC_R][TOTAL_ACCESS] = 476
L2_cache_data_port_util = 0.043
L2_cache_fill_port_util = 0.147

icnt_total_pkts_mem_to_simt=5976864
icnt_total_pkts_simt_to_mem=4279864
LD_mem_lat_dist  0 0 0 0 0 0 0 0 0 0 0 0 0 0 0 0 0 0 0 0 0 0 0 0 0 0 0
ST_mem_lat_dist  0 0 0 0 0 0 0 0 0 0 0 0 0 0 0 0 0 0 0 0 0 0 0 0 0 0 0
----------------------------Interconnect-DETAILS--------------------------------
Class 0:
Packet latency average = 8.46039
	minimum = 6
	maximum = 38
Network latency average = 8.34678
	minimum = 6
	maximum = 38
Slowest packet = 3630078
Flit latency average = 6.79078
	minimum = 6
	maximum = 34
Slowest flit = 10005078
Fragmentation average = 0
	minimum = 0
	maximum = 0
Injected packet rate average = 0.0237708
	minimum = 0.0188105 (at node 0)
	maximum = 0.0282158 (at node 7)
Accepted packet rate average = 0.0237708
	minimum = 0.0188105 (at node 0)
	maximum = 0.0282158 (at node 7)
Injected flit rate average = 0.0655159
	minimum = 0.043346 (at node 0)
	maximum = 0.0868454 (at node 34)
Accepted flit rate average= 0.0655159
	minimum = 0.0603164 (at node 0)
	maximum = 0.0904746 (at node 7)
Injected packet length average = 2.75615
Accepted packet length average = 2.75615
Total in-flight flits = 0 (0 measured)
====== Overall Traffic Statistics ======
====== Traffic class 0 ======
Packet latency average = 8.5338 (40 samples)
	minimum = 6 (40 samples)
	maximum = 44.9 (40 samples)
Network latency average = 8.41033 (40 samples)
	minimum = 6 (40 samples)
	maximum = 41.825 (40 samples)
Flit latency average = 6.86798 (40 samples)
	minimum = 6 (40 samples)
	maximum = 38.55 (40 samples)
Fragmentation average = 0 (40 samples)
	minimum = 0 (40 samples)
	maximum = 0 (40 samples)
Injected packet rate average = 0.0238213 (40 samples)
	minimum = 0.0188511 (40 samples)
	maximum = 0.028274 (40 samples)
Accepted packet rate average = 0.0238213 (40 samples)
	minimum = 0.0188511 (40 samples)
	maximum = 0.028274 (40 samples)
Injected flit rate average = 0.0656561 (40 samples)
	minimum = 0.0434325 (40 samples)
	maximum = 0.087072 (40 samples)
Accepted flit rate average = 0.0656561 (40 samples)
	minimum = 0.0604553 (40 samples)
	maximum = 0.09067 (40 samples)
Injected packet size average = 2.7562 (40 samples)
Accepted packet size average = 2.7562 (40 samples)
Hops average = 1 (40 samples)
----------------------------END-of-Interconnect-DETAILS-------------------------


gpgpu_simulation_time = 0 days, 0 hrs, 56 min, 42 sec (3402 sec)
gpgpu_simulation_rate = 339199 (inst/sec)
gpgpu_simulation_rate = 3213 (cycle/sec)
========================================UVM statistics==============================
========================================TLB statistics(access)==============================
Shader0: Tlb_access: 0 Tlb_hit: 0 Tlb_miss: 0 Tlb_hit_rate: -nan
Shader1: Tlb_access: 0 Tlb_hit: 0 Tlb_miss: 0 Tlb_hit_rate: -nan
Shader2: Tlb_access: 0 Tlb_hit: 0 Tlb_miss: 0 Tlb_hit_rate: -nan
Shader3: Tlb_access: 0 Tlb_hit: 0 Tlb_miss: 0 Tlb_hit_rate: -nan
Shader4: Tlb_access: 0 Tlb_hit: 0 Tlb_miss: 0 Tlb_hit_rate: -nan
Shader5: Tlb_access: 0 Tlb_hit: 0 Tlb_miss: 0 Tlb_hit_rate: -nan
Shader6: Tlb_access: 0 Tlb_hit: 0 Tlb_miss: 0 Tlb_hit_rate: -nan
Shader7: Tlb_access: 0 Tlb_hit: 0 Tlb_miss: 0 Tlb_hit_rate: -nan
Shader8: Tlb_access: 0 Tlb_hit: 0 Tlb_miss: 0 Tlb_hit_rate: -nan
Shader9: Tlb_access: 0 Tlb_hit: 0 Tlb_miss: 0 Tlb_hit_rate: -nan
Shader10: Tlb_access: 0 Tlb_hit: 0 Tlb_miss: 0 Tlb_hit_rate: -nan
Shader11: Tlb_access: 0 Tlb_hit: 0 Tlb_miss: 0 Tlb_hit_rate: -nan
Shader12: Tlb_access: 0 Tlb_hit: 0 Tlb_miss: 0 Tlb_hit_rate: -nan
Shader13: Tlb_access: 0 Tlb_hit: 0 Tlb_miss: 0 Tlb_hit_rate: -nan
Shader14: Tlb_access: 0 Tlb_hit: 0 Tlb_miss: 0 Tlb_hit_rate: -nan
Shader15: Tlb_access: 0 Tlb_hit: 0 Tlb_miss: 0 Tlb_hit_rate: -nan
Shader16: Tlb_access: 0 Tlb_hit: 0 Tlb_miss: 0 Tlb_hit_rate: -nan
Shader17: Tlb_access: 0 Tlb_hit: 0 Tlb_miss: 0 Tlb_hit_rate: -nan
Shader18: Tlb_access: 0 Tlb_hit: 0 Tlb_miss: 0 Tlb_hit_rate: -nan
Shader19: Tlb_access: 0 Tlb_hit: 0 Tlb_miss: 0 Tlb_hit_rate: -nan
Shader20: Tlb_access: 0 Tlb_hit: 0 Tlb_miss: 0 Tlb_hit_rate: -nan
Shader21: Tlb_access: 0 Tlb_hit: 0 Tlb_miss: 0 Tlb_hit_rate: -nan
Shader22: Tlb_access: 0 Tlb_hit: 0 Tlb_miss: 0 Tlb_hit_rate: -nan
Shader23: Tlb_access: 0 Tlb_hit: 0 Tlb_miss: 0 Tlb_hit_rate: -nan
Shader24: Tlb_access: 0 Tlb_hit: 0 Tlb_miss: 0 Tlb_hit_rate: -nan
Shader25: Tlb_access: 0 Tlb_hit: 0 Tlb_miss: 0 Tlb_hit_rate: -nan
Shader26: Tlb_access: 0 Tlb_hit: 0 Tlb_miss: 0 Tlb_hit_rate: -nan
Shader27: Tlb_access: 0 Tlb_hit: 0 Tlb_miss: 0 Tlb_hit_rate: -nan
Tlb_tot_access: 0 Tlb_tot_hit: 0, Tlb_tot_miss: 0, Tlb_tot_hit_rate: -nan
========================================TLB statistics(validate)==============================
Shader0: Tlb_validate: 0 Tlb_invalidate: 0 Tlb_evict: 0 Tlb_page_evict: 0
Shader1: Tlb_validate: 0 Tlb_invalidate: 0 Tlb_evict: 0 Tlb_page_evict: 0
Shader2: Tlb_validate: 0 Tlb_invalidate: 0 Tlb_evict: 0 Tlb_page_evict: 0
Shader3: Tlb_validate: 0 Tlb_invalidate: 0 Tlb_evict: 0 Tlb_page_evict: 0
Shader4: Tlb_validate: 0 Tlb_invalidate: 0 Tlb_evict: 0 Tlb_page_evict: 0
Shader5: Tlb_validate: 0 Tlb_invalidate: 0 Tlb_evict: 0 Tlb_page_evict: 0
Shader6: Tlb_validate: 0 Tlb_invalidate: 0 Tlb_evict: 0 Tlb_page_evict: 0
Shader7: Tlb_validate: 0 Tlb_invalidate: 0 Tlb_evict: 0 Tlb_page_evict: 0
Shader8: Tlb_validate: 0 Tlb_invalidate: 0 Tlb_evict: 0 Tlb_page_evict: 0
Shader9: Tlb_validate: 0 Tlb_invalidate: 0 Tlb_evict: 0 Tlb_page_evict: 0
Shader10: Tlb_validate: 0 Tlb_invalidate: 0 Tlb_evict: 0 Tlb_page_evict: 0
Shader11: Tlb_validate: 0 Tlb_invalidate: 0 Tlb_evict: 0 Tlb_page_evict: 0
Shader12: Tlb_validate: 0 Tlb_invalidate: 0 Tlb_evict: 0 Tlb_page_evict: 0
Shader13: Tlb_validate: 0 Tlb_invalidate: 0 Tlb_evict: 0 Tlb_page_evict: 0
Shader14: Tlb_validate: 0 Tlb_invalidate: 0 Tlb_evict: 0 Tlb_page_evict: 0
Shader15: Tlb_validate: 0 Tlb_invalidate: 0 Tlb_evict: 0 Tlb_page_evict: 0
Shader16: Tlb_validate: 0 Tlb_invalidate: 0 Tlb_evict: 0 Tlb_page_evict: 0
Shader17: Tlb_validate: 0 Tlb_invalidate: 0 Tlb_evict: 0 Tlb_page_evict: 0
Shader18: Tlb_validate: 0 Tlb_invalidate: 0 Tlb_evict: 0 Tlb_page_evict: 0
Shader19: Tlb_validate: 0 Tlb_invalidate: 0 Tlb_evict: 0 Tlb_page_evict: 0
Shader20: Tlb_validate: 0 Tlb_invalidate: 0 Tlb_evict: 0 Tlb_page_evict: 0
Shader21: Tlb_validate: 0 Tlb_invalidate: 0 Tlb_evict: 0 Tlb_page_evict: 0
Shader22: Tlb_validate: 0 Tlb_invalidate: 0 Tlb_evict: 0 Tlb_page_evict: 0
Shader23: Tlb_validate: 0 Tlb_invalidate: 0 Tlb_evict: 0 Tlb_page_evict: 0
Shader24: Tlb_validate: 0 Tlb_invalidate: 0 Tlb_evict: 0 Tlb_page_evict: 0
Shader25: Tlb_validate: 0 Tlb_invalidate: 0 Tlb_evict: 0 Tlb_page_evict: 0
Shader26: Tlb_validate: 0 Tlb_invalidate: 0 Tlb_evict: 0 Tlb_page_evict: 0
Shader27: Tlb_validate: 0 Tlb_invalidate: 0 Tlb_evict: 0 Tlb_page_evict: 0
Tlb_tot_valiate: 0 Tlb_invalidate: 0, Tlb_tot_evict: 0, Tlb_tot_evict page: 0
========================================TLB statistics(threshing)==============================
Shader0: Total 0
Shader1: Total 0
Shader2: Total 0
Shader3: Total 0
Shader4: Total 0
Shader5: Total 0
Shader6: Total 0
Shader7: Total 0
Shader8: Total 0
Shader9: Total 0
Shader10: Total 0
Shader11: Total 0
Shader12: Total 0
Shader13: Total 0
Shader14: Total 0
Shader15: Total 0
Shader16: Total 0
Shader17: Total 0
Shader18: Total 0
Shader19: Total 0
Shader20: Total 0
Shader21: Total 0
Shader22: Total 0
Shader23: Total 0
Shader24: Total 0
Shader25: Total 0
Shader26: Total 0
Shader27: Total 0
Tlb_tot_thresh: 0
========================================Page fault statistics==============================
Shader0: Page_table_access:0 Page_hit: 0 Page_miss: 0 Page_hit_rate: -nan Page_fault: 0 Page_pending: 0
Shader1: Page_table_access:0 Page_hit: 0 Page_miss: 0 Page_hit_rate: -nan Page_fault: 0 Page_pending: 0
Shader2: Page_table_access:0 Page_hit: 0 Page_miss: 0 Page_hit_rate: -nan Page_fault: 0 Page_pending: 0
Shader3: Page_table_access:0 Page_hit: 0 Page_miss: 0 Page_hit_rate: -nan Page_fault: 0 Page_pending: 0
Shader4: Page_table_access:0 Page_hit: 0 Page_miss: 0 Page_hit_rate: -nan Page_fault: 0 Page_pending: 0
Shader5: Page_table_access:0 Page_hit: 0 Page_miss: 0 Page_hit_rate: -nan Page_fault: 0 Page_pending: 0
Shader6: Page_table_access:0 Page_hit: 0 Page_miss: 0 Page_hit_rate: -nan Page_fault: 0 Page_pending: 0
Shader7: Page_table_access:0 Page_hit: 0 Page_miss: 0 Page_hit_rate: -nan Page_fault: 0 Page_pending: 0
Shader8: Page_table_access:0 Page_hit: 0 Page_miss: 0 Page_hit_rate: -nan Page_fault: 0 Page_pending: 0
Shader9: Page_table_access:0 Page_hit: 0 Page_miss: 0 Page_hit_rate: -nan Page_fault: 0 Page_pending: 0
Shader10: Page_table_access:0 Page_hit: 0 Page_miss: 0 Page_hit_rate: -nan Page_fault: 0 Page_pending: 0
Shader11: Page_table_access:0 Page_hit: 0 Page_miss: 0 Page_hit_rate: -nan Page_fault: 0 Page_pending: 0
Shader12: Page_table_access:0 Page_hit: 0 Page_miss: 0 Page_hit_rate: -nan Page_fault: 0 Page_pending: 0
Shader13: Page_table_access:0 Page_hit: 0 Page_miss: 0 Page_hit_rate: -nan Page_fault: 0 Page_pending: 0
Shader14: Page_table_access:0 Page_hit: 0 Page_miss: 0 Page_hit_rate: -nan Page_fault: 0 Page_pending: 0
Shader15: Page_table_access:0 Page_hit: 0 Page_miss: 0 Page_hit_rate: -nan Page_fault: 0 Page_pending: 0
Shader16: Page_table_access:0 Page_hit: 0 Page_miss: 0 Page_hit_rate: -nan Page_fault: 0 Page_pending: 0
Shader17: Page_table_access:0 Page_hit: 0 Page_miss: 0 Page_hit_rate: -nan Page_fault: 0 Page_pending: 0
Shader18: Page_table_access:0 Page_hit: 0 Page_miss: 0 Page_hit_rate: -nan Page_fault: 0 Page_pending: 0
Shader19: Page_table_access:0 Page_hit: 0 Page_miss: 0 Page_hit_rate: -nan Page_fault: 0 Page_pending: 0
Shader20: Page_table_access:0 Page_hit: 0 Page_miss: 0 Page_hit_rate: -nan Page_fault: 0 Page_pending: 0
Shader21: Page_table_access:0 Page_hit: 0 Page_miss: 0 Page_hit_rate: -nan Page_fault: 0 Page_pending: 0
Shader22: Page_table_access:0 Page_hit: 0 Page_miss: 0 Page_hit_rate: -nan Page_fault: 0 Page_pending: 0
Shader23: Page_table_access:0 Page_hit: 0 Page_miss: 0 Page_hit_rate: -nan Page_fault: 0 Page_pending: 0
Shader24: Page_table_access:0 Page_hit: 0 Page_miss: 0 Page_hit_rate: -nan Page_fault: 0 Page_pending: 0
Shader25: Page_table_access:0 Page_hit: 0 Page_miss: 0 Page_hit_rate: -nan Page_fault: 0 Page_pending: 0
Shader26: Page_table_access:0 Page_hit: 0 Page_miss: 0 Page_hit_rate: -nan Page_fault: 0 Page_pending: 0
Shader27: Page_table_access:0 Page_hit: 0 Page_miss: 0 Page_hit_rate: -nan Page_fault: 0 Page_pending: 0
Page_talbe_tot_access: 0 Page_tot_hit: 0, Page_tot_miss 0, Page_tot_hit_rate: -nan Page_tot_fault: 0 Page_tot_pending: 0
Total_memory_access_page_fault: 0, Average_latency 0.000000
========================================Page threshing statistics==============================
Page_validate: 0 Page_evict_diry: 0 Page_evict_not_diry: 0
Page_tot_thresh: 0
========================================Memory access statistics==============================
========================================Prefetch statistics==============================
Tot_page_hit: 0, Tot_page_miss: 0, Tot_page_fault: 0
Avg_page_latency: 0.000000, Avg_prefetch_size: -nan, Avg_prefetch_latency: 0.000000
========================================PCI-e statistics==============================
Pcie_read_utilization: 0.000000
[0-25]: -nan, [26-50]: -nan, [51-75]: -nan, [76-100]: -nan
Pcie_write_utilization: 0.000000
[0-25]: -nan, [26-50]: -nan, [51-75]: -nan, [76-100]: -nan
F:        0----T:   484160 	 St: 80000000 Sz: 2097152 	 Sm: 0 	 T: memcpy_h2d(326.914246)
F:   484161----T:        0 	 St: 80200000 Sz: 2097152 	 Sm: 0 	 T: memcpy_d2d(12455600579411968.000000)
F:   706312----T:   748735 	 	 	 Kl: 1 	 Sm: 0 	 T: kernel_launch(28.644835)
F:   970885----T:  1009994 	 	 	 Kl: 2 	 Sm: 0 	 T: kernel_launch(26.407158)
F:  1232144----T:  1270883 	 	 	 Kl: 3 	 Sm: 0 	 T: kernel_launch(26.157326)
F:  1493033----T:  1532183 	 	 	 Kl: 4 	 Sm: 0 	 T: kernel_launch(26.434841)
F:  1754333----T:  1793125 	 	 	 Kl: 5 	 Sm: 0 	 T: kernel_launch(26.193113)
F:  2015275----T:  2054335 	 	 	 Kl: 6 	 Sm: 0 	 T: kernel_launch(26.374071)
F:  2276485----T:  2315316 	 	 	 Kl: 7 	 Sm: 0 	 T: kernel_launch(26.219446)
F:  2537466----T:  2576495 	 	 	 Kl: 8 	 Sm: 0 	 T: kernel_launch(26.353140)
F:  2798645----T:  2837536 	 	 	 Kl: 9 	 Sm: 0 	 T: kernel_launch(26.259960)
F:  3059686----T:  3098577 	 	 	 Kl: 10 	 Sm: 0 	 T: kernel_launch(26.259960)
F:  3320727----T:  3359609 	 	 	 Kl: 11 	 Sm: 0 	 T: kernel_launch(26.253883)
F:  3581759----T:  3620840 	 	 	 Kl: 12 	 Sm: 0 	 T: kernel_launch(26.388250)
F:  3842990----T:  3881979 	 	 	 Kl: 13 	 Sm: 0 	 T: kernel_launch(26.326132)
F:  4104129----T:  4143153 	 	 	 Kl: 14 	 Sm: 0 	 T: kernel_launch(26.349764)
F:  4365303----T:  4404108 	 	 	 Kl: 15 	 Sm: 0 	 T: kernel_launch(26.201891)
F:  4626258----T:  4665344 	 	 	 Kl: 16 	 Sm: 0 	 T: kernel_launch(26.391626)
F:  4887494----T:  4926429 	 	 	 Kl: 17 	 Sm: 0 	 T: kernel_launch(26.289669)
F:  5148579----T:  5187686 	 	 	 Kl: 18 	 Sm: 0 	 T: kernel_launch(26.405807)
F:  5409836----T:  5448826 	 	 	 Kl: 19 	 Sm: 0 	 T: kernel_launch(26.326807)
F:  5670976----T:  5710209 	 	 	 Kl: 20 	 Sm: 0 	 T: kernel_launch(26.490885)
F:  5932359----T:  5971159 	 	 	 Kl: 21 	 Sm: 0 	 T: kernel_launch(26.198515)
F:  6193309----T:  6232486 	 	 	 Kl: 22 	 Sm: 0 	 T: kernel_launch(26.453072)
F:  6454636----T:  6493266 	 	 	 Kl: 23 	 Sm: 0 	 T: kernel_launch(26.083727)
F:  6715416----T:  6754638 	 	 	 Kl: 24 	 Sm: 0 	 T: kernel_launch(26.483458)
F:  6976788----T:  7015497 	 	 	 Kl: 25 	 Sm: 0 	 T: kernel_launch(26.137070)
F:  7237647----T:  7276716 	 	 	 Kl: 26 	 Sm: 0 	 T: kernel_launch(26.380148)
F:  7498866----T:  7537738 	 	 	 Kl: 27 	 Sm: 0 	 T: kernel_launch(26.247129)
F:  7759888----T:  7798941 	 	 	 Kl: 28 	 Sm: 0 	 T: kernel_launch(26.369345)
F:  8021091----T:  8059919 	 	 	 Kl: 29 	 Sm: 0 	 T: kernel_launch(26.217421)
F:  8282069----T:  8321067 	 	 	 Kl: 30 	 Sm: 0 	 T: kernel_launch(26.332209)
F:  8543217----T:  8582139 	 	 	 Kl: 31 	 Sm: 0 	 T: kernel_launch(26.280891)
F:  8804289----T:  8843418 	 	 	 Kl: 32 	 Sm: 0 	 T: kernel_launch(26.420662)
F:  9065568----T:  9104385 	 	 	 Kl: 33 	 Sm: 0 	 T: kernel_launch(26.209993)
F:  9326535----T:  9365738 	 	 	 Kl: 34 	 Sm: 0 	 T: kernel_launch(26.470629)
F:  9587888----T:  9626852 	 	 	 Kl: 35 	 Sm: 0 	 T: kernel_launch(26.309250)
F:  9849002----T:  9888015 	 	 	 Kl: 36 	 Sm: 0 	 T: kernel_launch(26.342337)
F: 10110165----T: 10148895 	 	 	 Kl: 37 	 Sm: 0 	 T: kernel_launch(26.151249)
F: 10371045----T: 10410224 	 	 	 Kl: 38 	 Sm: 0 	 T: kernel_launch(26.454422)
F: 10632374----T: 10671375 	 	 	 Kl: 39 	 Sm: 0 	 T: kernel_launch(26.334234)
F: 10893525----T: 10932653 	 	 	 Kl: 40 	 Sm: 0 	 T: kernel_launch(26.419987)
F: 10932653----T: 11416813 	 St: 80000000 Sz: 2097152 	 Sm: 0 	 T: memcpy_d2h(326.914246)
Tot_prefetch_time: 0(cycle), 0.000000(us)
Tot_kernel_exec_time: 1562491(cycle), 1055.024292(us)
Tot_kernel_exec_time_and_fault_time: 1562491(cycle), 1055.024292(us)
Tot_memcpy_h2d_time: 484160(cycle), 326.914246(us)
Tot_memcpy_d2h_time: 484160(cycle), 326.914246(us)
Tot_memcpy_time: 968320(cycle), 653.828491(us)
Tot_devicesync_time: 0(cycle), 0.000000(us)
Tot_writeback_time: 0(cycle), 0.000000(us)
Tot_memcpy_d2h_sync_wb_time: 484160(cycle), 326.914246(us)
GPGPU-Sim: *** exit detected ***
