

        *** GPGPU-Sim Simulator Version 3.2.2  [build gpgpu-sim_git-commit-32a5e88e7f0bd0281e1f3b1056e517909662bd85_modified_0] ***


GPGPU-Sim PTX: simulation mode 0 (can change with PTX_SIM_MODE_FUNC environment variable:
               1=functional simulation only, 0=detailed performance simulator)
GPGPU-Sim: Configuration options:

-network_mode                           1 # Interconnection network mode
-inter_config_file   config_fermi_islip.icnt # Interconnection network config file
-gpgpu_ptx_use_cuobjdump                    1 # Use cuobjdump to extract ptx and sass from binaries
-gpgpu_experimental_lib_support                    0 # Try to extract code from cuda libraries [Broken because of unknown cudaGetExportTable]
-gpgpu_ptx_convert_to_ptxplus                    0 # Convert SASS (native ISA) to ptxplus and run ptxplus
-gpgpu_ptx_force_max_capability                   20 # Force maximum compute capability
-gpgpu_ptx_inst_debug_to_file                    0 # Dump executed instructions' debug information to file
-gpgpu_ptx_inst_debug_file       inst_debug.txt # Executed instructions' debug output file
-gpgpu_ptx_inst_debug_thread_uid                    1 # Thread UID for executed instructions' debug output
-gpgpu_simd_model                       1 # 1 = post-dominator
-gpgpu_shader_core_pipeline              2048:32 # shader core pipeline config, i.e., {<nthread>:<warpsize>}
-gpgpu_tex_cache:l1  16:128:24,L:R:m:N:L,F:128:4,128:2 # per-shader L1 texture cache  (READ-ONLY) config  {<nsets>:<bsize>:<assoc>,<rep>:<wr>:<alloc>:<wr_alloc>,<mshr>:<N>:<merge>,<mq>:<rf>}
-gpgpu_const_cache:l1 128:64:2,L:R:f:N:L,A:2:64,4 # per-shader L1 constant memory cache  (READ-ONLY) config  {<nsets>:<bsize>:<assoc>,<rep>:<wr>:<alloc>:<wr_alloc>,<mshr>:<N>:<merge>,<mq>} 
-gpgpu_cache:il1     8:128:4,L:R:f:N:L,A:2:48,4 # shader L1 instruction cache config  {<nsets>:<bsize>:<assoc>,<rep>:<wr>:<alloc>:<wr_alloc>,<mshr>:<N>:<merge>,<mq>} 
-gpgpu_cache:dl1     64:128:6,L:L:m:N:H,A:128:8,8 # per-shader L1 data cache config  {<nsets>:<bsize>:<assoc>,<rep>:<wr>:<alloc>:<wr_alloc>,<mshr>:<N>:<merge>,<mq> | none}
-gpgpu_cache:dl1PrefL1                 none # per-shader L1 data cache config  {<nsets>:<bsize>:<assoc>,<rep>:<wr>:<alloc>:<wr_alloc>,<mshr>:<N>:<merge>,<mq> | none}
-gpgpu_cache:dl1PrefShared                 none # per-shader L1 data cache config  {<nsets>:<bsize>:<assoc>,<rep>:<wr>:<alloc>:<wr_alloc>,<mshr>:<N>:<merge>,<mq> | none}
-gmem_skip_L1D                          1 # global memory access skip L1D cache (implements -Xptxas -dlcm=cg, default=no skip)
-gpgpu_perfect_mem                      0 # enable perfect memory mode (no cache miss)
-n_regfile_gating_group                    4 # group of lanes that should be read/written together)
-gpgpu_clock_gated_reg_file                    0 # enable clock gated reg file for power calculations
-gpgpu_clock_gated_lanes                    0 # enable clock gated lanes for power calculations
-gpgpu_shader_registers                65536 # Number of registers per shader core. Limits number of concurrent CTAs. (default 8192)
-gpgpu_shader_cta                      32 # Maximum number of concurrent CTAs in shader (default 8)
-gpgpu_num_cta_barriers                   16 # Maximum number of named barriers per CTA (default 16)
-gpgpu_n_clusters                      28 # number of processing clusters
-gpgpu_n_cores_per_cluster                    1 # number of simd cores per cluster
-gpgpu_n_cluster_ejection_buffer_size                    8 # number of packets in ejection buffer
-gpgpu_n_ldst_response_buffer_size                    2 # number of response packets in ld/st unit ejection buffer
-gpgpu_shmem_size                   16384 # Size of shared memory per shader core (default 16kB)
-gpgpu_shmem_size                   98304 # Size of shared memory per shader core (default 16kB)
-gpgpu_shmem_size_PrefL1                16384 # Size of shared memory per shader core (default 16kB)
-gpgpu_shmem_size_PrefShared                16384 # Size of shared memory per shader core (default 16kB)
-gpgpu_shmem_num_banks                   32 # Number of banks in the shared memory in each shader core (default 16)
-gpgpu_shmem_limited_broadcast                    0 # Limit shared memory to do one broadcast per cycle (default on)
-gpgpu_shmem_warp_parts                    1 # Number of portions a warp is divided into for shared memory bank conflict check 
-gpgpu_warpdistro_shader                   -1 # Specify which shader core to collect the warp size distribution from
-gpgpu_warp_issue_shader                    0 # Specify which shader core to collect the warp issue distribution from
-gpgpu_local_mem_map                    1 # Mapping from local memory space address to simulated GPU physical address space (default = enabled)
-gpgpu_num_reg_banks                   32 # Number of register banks (default = 8)
-gpgpu_reg_bank_use_warp_id                    0 # Use warp ID in mapping registers to banks (default = off)
-gpgpu_operand_collector_num_units_sp                   20 # number of collector units (default = 4)
-gpgpu_operand_collector_num_units_sfu                    4 # number of collector units (default = 4)
-gpgpu_operand_collector_num_units_mem                    8 # number of collector units (default = 2)
-gpgpu_operand_collector_num_units_gen                    0 # number of collector units (default = 0)
-gpgpu_operand_collector_num_in_ports_sp                    4 # number of collector unit in ports (default = 1)
-gpgpu_operand_collector_num_in_ports_sfu                    1 # number of collector unit in ports (default = 1)
-gpgpu_operand_collector_num_in_ports_mem                    1 # number of collector unit in ports (default = 1)
-gpgpu_operand_collector_num_in_ports_gen                    0 # number of collector unit in ports (default = 0)
-gpgpu_operand_collector_num_out_ports_sp                    4 # number of collector unit in ports (default = 1)
-gpgpu_operand_collector_num_out_ports_sfu                    1 # number of collector unit in ports (default = 1)
-gpgpu_operand_collector_num_out_ports_mem                    1 # number of collector unit in ports (default = 1)
-gpgpu_operand_collector_num_out_ports_gen                    0 # number of collector unit in ports (default = 0)
-gpgpu_coalesce_arch                   13 # Coalescing arch (default = 13, anything else is off for now)
-gpgpu_num_sched_per_core                    2 # Number of warp schedulers per core
-gpgpu_max_insn_issue_per_warp                    2 # Max number of instructions that can be issued per warp in one cycle by scheduler
-gpgpu_simt_core_sim_order                    1 # Select the simulation order of cores in a cluster (0=Fix, 1=Round-Robin)
-gpgpu_pipeline_widths        4,1,1,4,1,1,6 # Pipeline widths ID_OC_SP,ID_OC_SFU,ID_OC_MEM,OC_EX_SP,OC_EX_SFU,OC_EX_MEM,EX_WB
-gpgpu_num_sp_units                     4 # Number of SP units (default=1)
-gpgpu_num_sfu_units                    1 # Number of SF units (default=1)
-gpgpu_num_mem_units                    1 # Number if ldst units (default=1) WARNING: not hooked up to anything
-gpgpu_scheduler                      gto # Scheduler configuration: < lrr | gto | two_level_active > If two_level_active:<num_active_warps>:<inner_prioritization>:<outer_prioritization>For complete list of prioritization values see shader.h enum scheduler_prioritization_typeDefault: gto
-gpgpu_concurrent_kernel_sm                    0 # Support concurrent kernels on a SM (default = disabled)
-tlb_size                            4096 # Number of tlb entries per SM.
-gpgpu_dram_scheduler                    1 # 0 = fifo, 1 = FR-FCFS (defaul)
-gpgpu_dram_partition_queues              8:8:8:8 # i2$:$2d:d2$:$2i
-l2_ideal                               0 # Use a ideal L2 cache that always hit
-gpgpu_cache:dl2     64:128:16,L:B:m:W:L,A:1024:1024,4:0,32 # unified banked L2 data cache config  {<nsets>:<bsize>:<assoc>,<rep>:<wr>:<alloc>:<wr_alloc>,<mshr>:<N>:<merge>,<mq>}
-gpgpu_cache:dl2_texture_only                    0 # L2 cache used for texture only
-gpgpu_n_mem                           11 # number of memory modules (e.g. memory controllers) in gpu
-gpgpu_n_sub_partition_per_mchannel                    2 # number of memory subpartition in each memory module
-gpgpu_n_mem_per_ctrlr                    1 # number of memory chips per memory controller
-gpgpu_memlatency_stat                   14 # track and display latency statistics 0x2 enables MC, 0x4 enables queue logs
-gpgpu_frfcfs_dram_sched_queue_size                   64 # 0 = unlimited (default); # entries per chip
-gpgpu_dram_return_queue_size                  116 # 0 = unlimited (default); # entries per chip
-gpgpu_dram_buswidth                    4 # default = 4 bytes (8 bytes per cycle at DDR)
-gpgpu_dram_burst_length                    8 # Burst length of each DRAM request (default = 4 data bus cycle)
-dram_data_command_freq_ratio                    4 # Frequency ratio between DRAM data bus and command bus (default = 2 times, i.e. DDR)
-gpgpu_dram_timing_opt nbk=16:CCD=2:RRD=6:RCD=12:RAS=28:RP=12:RC=40: CL=12:WL=4:CDLR=5:WR=12:nbkgrp=1:CCDL=0:RTPL=0 # DRAM timing parameters = {nbk:tCCD:tRRD:tRCD:tRAS:tRP:tRC:CL:WL:tCDLR:tWR:nbkgrp:tCCDL:tRTPL}
-rop_latency                          120 # ROP queue latency (default 85)
-dram_latency                         100 # DRAM latency (default 30)
-gpgpu_mem_addr_mapping dramid@8;00000000.00000000.00000000.00000000.0000RRRR.RRRRRRRR.RBBBCCCC.BCCSSSSS # mapping memory address to dram model {dramid@<start bit>;<memory address map>}
-gpgpu_mem_addr_test                    0 # run sweep test to check address mapping for aliased address
-gpgpu_mem_address_mask                    1 # 0 = old addressing mask, 1 = new addressing mask, 2 = new add. mask + flipped bank sel and chip sel bits
-gpuwattch_xml_file  gpuwattch_geforcegtx1080ti.xml # GPUWattch XML file
-power_simulation_enabled                    1 # Turn on power simulator (1=On, 0=Off)
-power_per_cycle_dump                    0 # Dump detailed power output each cycle
-power_trace_enabled                    0 # produce a file for the power trace (1=On, 0=Off)
-power_trace_zlevel                     6 # Compression level of the power trace output log (0=no comp, 9=highest)
-steady_power_levels_enabled                    0 # produce a file for the steady power levels (1=On, 0=Off)
-steady_state_definition                  8:4 # allowed deviation:number of samples
-gpgpu_max_cycle                        0 # terminates gpu simulation early (0 = no limit)
-gpgpu_max_insn                         0 # terminates gpu simulation early (0 = no limit)
-gpgpu_max_cta                          0 # terminates gpu simulation early (0 = no limit)
-gpgpu_runtime_stat                   500 # display runtime statistics such as dram utilization {<freq>:<flag>}
-liveness_message_freq                    1 # Minimum number of seconds between simulation liveness messages (0 = always print)
-gpgpu_flush_l1_cache                    0 # Flush L1 cache at the end of each kernel call
-gpgpu_flush_l2_cache                    0 # Flush L2 cache at the end of each kernel call
-gpgpu_deadlock_detect                    0 # Stop the simulation at deadlock (1=on (default), 0=off)
-gpgpu_ptx_instruction_classification                    0 # if enabled will classify ptx instruction types per kernel (Max 255 kernels now)
-gpgpu_ptx_sim_mode                     0 # Select between Performance (default) or Functional simulation (1)
-gpgpu_clock_domains 1481.0:2962.0:1481.0:2750.0 # Clock Domain Frequencies in MhZ {<Core Clock>:<ICNT Clock>:<L2 Clock>:<DRAM Clock>}
-gpgpu_max_concurrent_kernel                    8 # maximum kernels that can run concurrently on GPU
-gpgpu_cflog_interval                    0 # Interval between each snapshot in control flow logger
-visualizer_enabled                     0 # Turn on visualizer output (1=On, 0=Off)
-visualizer_outputfile                 NULL # Specifies the output log file for visualizer
-visualizer_zlevel                      6 # Compression level of the visualizer output log (0=no comp, 9=highest)
-trace_enabled                          0 # Turn on traces
-trace_components                    none # comma seperated list of traces to enable. Complete list found in trace_streams.tup. Default none
-trace_sampling_core                    0 # The core which is printed using CORE_DPRINTF. Default 0
-trace_sampling_memory_partition                   -1 # The memory partition which is printed using MEMPART_DPRINTF. Default -1 (i.e. all)
-gddr_size                            5MB # Size of GDDR in MB/GB.(GLOBAL_HEAP_START, GLOBAL_HEAP_START + gddr_size) would be used for unmanged memory, (GLOBAL_HEAP_START + gddr_size, GLOBAL_HEAP_START + gddr_size*2) would be used for managed memory. 
-page_table_walk_latency                  100 # Average page table walk latency (in core cycle).
-eviction_policy                        0 # Select page eviction policy
-invalidate_clean                       0 # Should directly invalidate clean pages
-reserve_accessed_page_percent                    0 # Percentage of accessed pages reserved from eviction in hope that they will be accessed in next iteration.
-percentage_of_free_page_buffer                    0 # Percentage of free page buffer to trigger the page eviction.
-page_size                            4KB # GDDR page size, only 4KB/2MB avaliable.
-pcie_bandwidth                  16.0GB/s # PCI-e bandwidth per direction, in GB/s.
-enable_dma                             0 # Enable direct access to CPU memory
-multiply_dma_penalty                    2 # Oversubscription Multiplicative Penalty Factor for Adaptive DMA
-migrate_threshold                      8 # Access counter threshold for migrating the page from cpu to gpu
-sim_prof_enable                        1 # Enable gpgpu-sim profiler
-hardware_prefetch                      1 # Select gpgpu-sim hardware prefetcher
-hwprefetch_oversub                     1 # Select gpgpu-sim hardware prefetcher under over-subscription
-page_fault_latency                 66645 # Average fault latency (in core cycle).
-enable_accurate_simulation                    0 # Enable page fault functional simulation.
-enable_smart_runtime                    1 # Enable access pattern detection, policy engine, and adaptive memory management.
-enable_ptx_file_line_stats                    1 # Turn on PTX source line statistic profiling. (1 = On)
-ptx_line_stats_filename gpgpu_inst_stats.txt # Output file for PTX source line statistics.
-gpgpu_kernel_launch_latency               222150 # Kernel launch latency in cycles. Default: 0
-gpgpu_cdp_enabled                      0 # Turn on CDP
-save_embedded_ptx                      0 # saves ptx files embedded in binary as <n>.ptx
-keep                                   0 # keep intermediate files created by GPGPU-Sim when interfacing with external programs
-gpgpu_ptx_save_converted_ptxplus                    0 # Saved converted ptxplus to a file
-ptx_opcode_latency_int         4,13,4,5,145 # Opcode latencies for integers <ADD,MAX,MUL,MAD,DIV>Default 1,1,19,25,145
-ptx_opcode_latency_fp          4,13,4,5,39 # Opcode latencies for single precision floating points <ADD,MAX,MUL,MAD,DIV>Default 1,1,1,1,30
-ptx_opcode_latency_dp         8,19,8,8,330 # Opcode latencies for double precision floating points <ADD,MAX,MUL,MAD,DIV>Default 8,8,8,8,335
-ptx_opcode_initiation_int            1,2,2,2,8 # Opcode initiation intervals for integers <ADD,MAX,MUL,MAD,DIV>Default 1,1,4,4,32
-ptx_opcode_initiation_fp            1,2,1,1,4 # Opcode initiation intervals for single precision floating points <ADD,MAX,MUL,MAD,DIV>Default 1,1,1,1,5
-ptx_opcode_initiation_dp          1,2,1,1,130 # Opcode initiation intervals for double precision floating points <ADD,MAX,MUL,MAD,DIV>Default 8,8,8,8,130
-cdp_latency         7200,8000,100,12000,1600 # CDP API latency <cudaStreamCreateWithFlags, cudaGetParameterBufferV2_init_perWarp, cudaGetParameterBufferV2_perKernel, cudaLaunchDeviceV2_init_perWarp, cudaLaunchDevicV2_perKernel>Default 7200,8000,100,12000,1600
DRAM Timing Options:
nbk                                    16 # number of banks
CCD                                     2 # column to column delay
RRD                                     6 # minimal delay between activation of rows in different banks
RCD                                    12 # row to column delay
RAS                                    28 # time needed to activate row
RP                                     12 # time needed to precharge (deactivate) row
RC                                     40 # row cycle time
CDLR                                    5 # switching from write to read (changes tWTR)
WR                                     12 # last data-in to row precharge
CL                                     12 # CAS latency
WL                                      4 # Write latency
nbkgrp                                  1 # number of bank groups
CCDL                                    0 # column to column delay between accesses to different bank groups
RTPL                                    0 # read to precharge delay between accesses to different bank groups
Total number of memory sub partition = 22
addr_dec_mask[CHIP]  = 0000000000000000 	high:64 low:0
addr_dec_mask[BK]    = 0000000000007080 	high:15 low:7
addr_dec_mask[ROW]   = 000000000fff8000 	high:28 low:15
addr_dec_mask[COL]   = 0000000000000f7f 	high:12 low:0
addr_dec_mask[BURST] = 000000000000001f 	high:5 low:0
sub_partition_id_mask = 0000000000000080
GPGPU-Sim uArch: clock freqs: 1481000000.000000:2962000000.000000:1481000000.000000:2750000000.000000
GPGPU-Sim uArch: clock periods: 0.00000000067521944632:0.00000000033760972316:0.00000000067521944632:0.00000000036363636364
*** Initializing Memory Statistics ***
GPGPU-Sim uArch: interconnect node map (shaderID+MemID to icntID)
GPGPU-Sim uArch: Memory nodes ID start from index: 28
GPGPU-Sim uArch:    0   1   2   3   4   5   6
GPGPU-Sim uArch:    7   8   9  10  11  12  13
GPGPU-Sim uArch:   14  15  16  17  18  19  20
GPGPU-Sim uArch:   21  22  23  24  25  26  27
GPGPU-Sim uArch:   28  29  30  31  32  33  34
GPGPU-Sim uArch:   35  36  37  38  39  40  41
GPGPU-Sim uArch:   42  43  44  45  46  47  48
GPGPU-Sim uArch:   49
GPGPU-Sim uArch: interconnect node reverse map (icntID to shaderID+MemID)
GPGPU-Sim uArch: Memory nodes start from ID: 28
GPGPU-Sim uArch:    0   1   2   3   4   5   6
GPGPU-Sim uArch:    7   8   9  10  11  12  13
GPGPU-Sim uArch:   14  15  16  17  18  19  20
GPGPU-Sim uArch:   21  22  23  24  25  26  27
GPGPU-Sim uArch:   28  29  30  31  32  33  34
GPGPU-Sim uArch:   35  36  37  38  39  40  41
GPGPU-Sim uArch:   42  43  44  45  46  47  48
GPGPU-Sim uArch:   49
f1531ddf66bd950620f74e97e9ac16cb  /root/gpgpu-sim_UVMSmart/benchmarks/Managed/ATAX/atax
GPGPU-Sim uArch: performance model initialization complete.
GPGPU-Sim PTX: __cudaRegisterFatBinary, fat_cubin_handle = 1, filename=default
self exe links to: /root/gpgpu-sim_UVMSmart/benchmarks/Managed/ATAX/atax
Running md5sum using "md5sum /root/gpgpu-sim_UVMSmart/benchmarks/Managed/ATAX/atax "
Parsing file _cuobjdump_complete_output_bFUdpw
######### cuobjdump parser ########
## Adding new section ELF
Adding arch: sm_20
Adding identifier: default
## Adding new section ELF
Adding arch: sm_20
Adding identifier: default
## Adding new section PTX
Adding ptx filename: _cuobjdump_1.ptx
Adding arch: sm_20
Adding identifier: default
Done parsing!!!
GPGPU-Sim PTX: __cudaRegisterFunction _Z12atax_kernel2PfS_S_ : hostFun 0x0x4010a2, fat_cubin_handle = 1
GPGPU-Sim PTX: instruction assembly for function '_Z12atax_kernel1PfS_S_'...   done.
GPGPU-Sim PTX: finding reconvergence points for '_Z12atax_kernel1PfS_S_'...
GPGPU-Sim PTX: Finding dominators for '_Z12atax_kernel1PfS_S_'...
GPGPU-Sim PTX: Finding immediate dominators for '_Z12atax_kernel1PfS_S_'...
GPGPU-Sim PTX: Finding postdominators for '_Z12atax_kernel1PfS_S_'...
GPGPU-Sim PTX: Finding immediate postdominators for '_Z12atax_kernel1PfS_S_'...
GPGPU-Sim PTX: pre-decoding instructions for '_Z12atax_kernel1PfS_S_'...
GPGPU-Sim PTX: reconvergence points for _Z12atax_kernel1PfS_S_...
GPGPU-Sim PTX:  1 (potential) branch divergence @  PC=0x040 (_1.ptx:34) @%p1 bra BB0_3;
GPGPU-Sim PTX:    immediate post dominator      @  PC=0x270 (_1.ptx:109) ret;
GPGPU-Sim PTX:  2 (potential) branch divergence @  PC=0x268 (_1.ptx:106) @%p2 bra BB0_2;
GPGPU-Sim PTX:    immediate post dominator      @  PC=0x270 (_1.ptx:109) ret;
GPGPU-Sim PTX: ... end of reconvergence points for _Z12atax_kernel1PfS_S_
GPGPU-Sim PTX: ... done pre-decoding instructions for '_Z12atax_kernel1PfS_S_'.
GPGPU-Sim PTX: instruction assembly for function '_Z12atax_kernel2PfS_S_'...   done.
GPGPU-Sim PTX: finding reconvergence points for '_Z12atax_kernel2PfS_S_'...
GPGPU-Sim PTX: Finding dominators for '_Z12atax_kernel2PfS_S_'...
GPGPU-Sim PTX: Finding immediate dominators for '_Z12atax_kernel2PfS_S_'...
GPGPU-Sim PTX: Finding postdominators for '_Z12atax_kernel2PfS_S_'...
GPGPU-Sim PTX: Finding immediate postdominators for '_Z12atax_kernel2PfS_S_'...
GPGPU-Sim PTX: pre-decoding instructions for '_Z12atax_kernel2PfS_S_'...
GPGPU-Sim PTX: reconvergence points for _Z12atax_kernel2PfS_S_...
GPGPU-Sim PTX:  1 (potential) branch divergence @  PC=0x2b8 (_1.ptx:133) @%p1 bra BB1_3;
GPGPU-Sim PTX:    immediate post dominator      @  PC=0x4b8 (_1.ptx:202) ret;
GPGPU-Sim PTX:  2 (potential) branch divergence @  PC=0x4b0 (_1.ptx:199) @%p2 bra BB1_2;
GPGPU-Sim PTX:    immediate post dominator      @  PC=0x4b8 (_1.ptx:202) ret;
GPGPU-Sim PTX: ... end of reconvergence points for _Z12atax_kernel2PfS_S_
GPGPU-Sim PTX: ... done pre-decoding instructions for '_Z12atax_kernel2PfS_S_'.
GPGPU-Sim PTX: finished parsing EMBEDDED .ptx file _1.ptx
Adding _cuobjdump_1.ptx with cubin handle 1
GPGPU-Sim PTX: extracting embedded .ptx to temporary file "_ptx_CsX85y"
Running: cat _ptx_CsX85y | sed 's/.version 1.5/.version 1.4/' | sed 's/, texmode_independent//' | sed 's/\(\.extern \.const\[1\] .b8 \w\+\)\[\]/\1\[1\]/' | sed 's/const\[.\]/const\[0\]/g' > _ptx2_RrM4MB
GPGPU-Sim PTX: generating ptxinfo using "$CUDA_INSTALL_PATH/bin/ptxas --gpu-name=sm_20 -v _ptx2_RrM4MB --output-file  /dev/null 2> _ptx_CsX85yinfo"
GPGPU-Sim PTX: Kernel '_Z12atax_kernel2PfS_S_' : regs=14, lmem=0, smem=0, cmem=56
GPGPU-Sim PTX: Kernel '_Z12atax_kernel1PfS_S_' : regs=19, lmem=0, smem=0, cmem=56
GPGPU-Sim PTX: removing ptxinfo using "rm -f _ptx_CsX85y _ptx2_RrM4MB _ptx_CsX85yinfo"
GPGPU-Sim PTX: loading globals with explicit initializers... 
GPGPU-Sim PTX: finished loading globals (0 bytes total).
GPGPU-Sim PTX: loading constants with explicit initializers...  done.
GPGPU-Sim PTX: __cudaRegisterFunction _Z12atax_kernel1PfS_S_ : hostFun 0x0x400fe3, fat_cubin_handle = 1

GPGPU-Sim PTX: cudaLaunch for 0x0x400fe3 (mode=performance simulation) on stream 0
GPGPU-Sim PTX: pushing kernel '_Z12atax_kernel1PfS_S_' to stream 0, gridDim= (5,1,1) blockDim = (256,1,1) 
GPGPU-Sim uArch: Shader 1 bind to kernel 1 '_Z12atax_kernel1PfS_S_'
GPGPU-Sim uArch: CTA/core = 8, limited by: threads
GPGPU-Sim uArch: Shader 2 bind to kernel 1 '_Z12atax_kernel1PfS_S_'
GPGPU-Sim uArch: Shader 3 bind to kernel 1 '_Z12atax_kernel1PfS_S_'
GPGPU-Sim uArch: Shader 4 bind to kernel 1 '_Z12atax_kernel1PfS_S_'
GPGPU-Sim uArch: Shader 5 bind to kernel 1 '_Z12atax_kernel1PfS_S_'
Destroy streams for kernel 1: size 0
kernel_name = _Z12atax_kernel1PfS_S_ 
kernel_launch_uid = 1 
gpu_sim_cycle = 2189284
gpu_sim_insn = 6627200
gpu_ipc =       3.0271
gpu_tot_sim_cycle = 2411434
gpu_tot_sim_insn = 6627200
gpu_tot_ipc =       2.7482
gpu_tot_issued_cta = 5
max_total_param_size = 0
gpu_stall_dramfull = 102
gpu_stall_icnt2sh    = 313514
partiton_reqs_in_parallel = 48164146
partiton_reqs_in_parallel_total    = 0
partiton_level_parallism =      22.0000
partiton_level_parallism_total  =      19.9732
partiton_reqs_in_parallel_util = 48164146
partiton_reqs_in_parallel_util_total    = 0
gpu_sim_cycle_parition_util = 2189284
gpu_tot_sim_cycle_parition_util    = 0
partiton_level_parallism_util =      22.0000
partiton_level_parallism_util_total  =      22.0000
partiton_replys_in_parallel = 1531268
partiton_replys_in_parallel_total    = 0
L2_BW  =      66.2955 GB/Sec
L2_BW_total  =      60.1881 GB/Sec
gpu_total_sim_rate=11082

========= Core cache stats =========
L1I_cache:
	L1I_total_cache_accesses = 106868
	L1I_total_cache_misses = 115
	L1I_total_cache_miss_rate = 0.0011
	L1I_total_cache_pending_hits = 0
	L1I_total_cache_reservation_fails = 0
L1D_cache:
	L1D_cache_core[0]: Access = 0, Miss = 0, Miss_rate = -nan, Pending_hits = 0, Reservation_fails = 0
	L1D_cache_core[1]: Access = 0, Miss = 0, Miss_rate = -nan, Pending_hits = 0, Reservation_fails = 0
	L1D_cache_core[2]: Access = 0, Miss = 0, Miss_rate = -nan, Pending_hits = 0, Reservation_fails = 0
	L1D_cache_core[3]: Access = 0, Miss = 0, Miss_rate = -nan, Pending_hits = 0, Reservation_fails = 0
	L1D_cache_core[4]: Access = 0, Miss = 0, Miss_rate = -nan, Pending_hits = 0, Reservation_fails = 0
	L1D_cache_core[5]: Access = 0, Miss = 0, Miss_rate = -nan, Pending_hits = 0, Reservation_fails = 0
	L1D_cache_core[6]: Access = 0, Miss = 0, Miss_rate = -nan, Pending_hits = 0, Reservation_fails = 0
	L1D_cache_core[7]: Access = 0, Miss = 0, Miss_rate = -nan, Pending_hits = 0, Reservation_fails = 0
	L1D_cache_core[8]: Access = 0, Miss = 0, Miss_rate = -nan, Pending_hits = 0, Reservation_fails = 0
	L1D_cache_core[9]: Access = 0, Miss = 0, Miss_rate = -nan, Pending_hits = 0, Reservation_fails = 0
	L1D_cache_core[10]: Access = 0, Miss = 0, Miss_rate = -nan, Pending_hits = 0, Reservation_fails = 0
	L1D_cache_core[11]: Access = 0, Miss = 0, Miss_rate = -nan, Pending_hits = 0, Reservation_fails = 0
	L1D_cache_core[12]: Access = 0, Miss = 0, Miss_rate = -nan, Pending_hits = 0, Reservation_fails = 0
	L1D_cache_core[13]: Access = 0, Miss = 0, Miss_rate = -nan, Pending_hits = 0, Reservation_fails = 0
	L1D_cache_core[14]: Access = 0, Miss = 0, Miss_rate = -nan, Pending_hits = 0, Reservation_fails = 0
	L1D_cache_core[15]: Access = 0, Miss = 0, Miss_rate = -nan, Pending_hits = 0, Reservation_fails = 0
	L1D_cache_core[16]: Access = 0, Miss = 0, Miss_rate = -nan, Pending_hits = 0, Reservation_fails = 0
	L1D_cache_core[17]: Access = 0, Miss = 0, Miss_rate = -nan, Pending_hits = 0, Reservation_fails = 0
	L1D_cache_core[18]: Access = 0, Miss = 0, Miss_rate = -nan, Pending_hits = 0, Reservation_fails = 0
	L1D_cache_core[19]: Access = 0, Miss = 0, Miss_rate = -nan, Pending_hits = 0, Reservation_fails = 0
	L1D_cache_core[20]: Access = 0, Miss = 0, Miss_rate = -nan, Pending_hits = 0, Reservation_fails = 0
	L1D_cache_core[21]: Access = 0, Miss = 0, Miss_rate = -nan, Pending_hits = 0, Reservation_fails = 0
	L1D_cache_core[22]: Access = 0, Miss = 0, Miss_rate = -nan, Pending_hits = 0, Reservation_fails = 0
	L1D_cache_core[23]: Access = 0, Miss = 0, Miss_rate = -nan, Pending_hits = 0, Reservation_fails = 0
	L1D_cache_core[24]: Access = 0, Miss = 0, Miss_rate = -nan, Pending_hits = 0, Reservation_fails = 0
	L1D_cache_core[25]: Access = 0, Miss = 0, Miss_rate = -nan, Pending_hits = 0, Reservation_fails = 0
	L1D_cache_core[26]: Access = 0, Miss = 0, Miss_rate = -nan, Pending_hits = 0, Reservation_fails = 0
	L1D_cache_core[27]: Access = 0, Miss = 0, Miss_rate = -nan, Pending_hits = 0, Reservation_fails = 0
	L1D_total_cache_accesses = 0
	L1D_total_cache_misses = 0
	L1D_total_cache_pending_hits = 0
	L1D_total_cache_reservation_fails = 0
	L1D_cache_data_port_util = 0.000
	L1D_cache_fill_port_util = 0.000
L1C_cache:
	L1C_total_cache_accesses = 120
	L1C_total_cache_misses = 120
	L1C_total_cache_miss_rate = 1.0000
	L1C_total_cache_pending_hits = 0
	L1C_total_cache_reservation_fails = 0
L1T_cache:
	L1T_total_cache_accesses = 0
	L1T_total_cache_misses = 0
	L1T_total_cache_pending_hits = 0
	L1T_total_cache_reservation_fails = 0

Total_core_cache_stats:
	Total_core_cache_stats_breakdown[GLOBAL_ACC_R][HIT] = 0
	Total_core_cache_stats_breakdown[GLOBAL_ACC_R][HIT_RESERVED] = 0
	Total_core_cache_stats_breakdown[GLOBAL_ACC_R][MISS] = 0
	Total_core_cache_stats_breakdown[GLOBAL_ACC_R][RESERVATION_FAIL] = 0
	Total_core_cache_stats_breakdown[LOCAL_ACC_R][HIT] = 0
	Total_core_cache_stats_breakdown[LOCAL_ACC_R][HIT_RESERVED] = 0
	Total_core_cache_stats_breakdown[LOCAL_ACC_R][MISS] = 0
	Total_core_cache_stats_breakdown[LOCAL_ACC_R][RESERVATION_FAIL] = 0
	Total_core_cache_stats_breakdown[CONST_ACC_R][HIT] = 0
	Total_core_cache_stats_breakdown[CONST_ACC_R][HIT_RESERVED] = 0
	Total_core_cache_stats_breakdown[CONST_ACC_R][MISS] = 120
	Total_core_cache_stats_breakdown[CONST_ACC_R][RESERVATION_FAIL] = 0
	Total_core_cache_stats_breakdown[TEXTURE_ACC_R][HIT] = 0
	Total_core_cache_stats_breakdown[TEXTURE_ACC_R][HIT_RESERVED] = 0
	Total_core_cache_stats_breakdown[TEXTURE_ACC_R][MISS] = 0
	Total_core_cache_stats_breakdown[TEXTURE_ACC_R][RESERVATION_FAIL] = 0
	Total_core_cache_stats_breakdown[GLOBAL_ACC_W][HIT] = 0
	Total_core_cache_stats_breakdown[GLOBAL_ACC_W][HIT_RESERVED] = 0
	Total_core_cache_stats_breakdown[GLOBAL_ACC_W][MISS] = 0
	Total_core_cache_stats_breakdown[GLOBAL_ACC_W][RESERVATION_FAIL] = 0
	Total_core_cache_stats_breakdown[LOCAL_ACC_W][HIT] = 0
	Total_core_cache_stats_breakdown[LOCAL_ACC_W][HIT_RESERVED] = 0
	Total_core_cache_stats_breakdown[LOCAL_ACC_W][MISS] = 0
	Total_core_cache_stats_breakdown[LOCAL_ACC_W][RESERVATION_FAIL] = 0
	Total_core_cache_stats_breakdown[L1_WRBK_ACC][HIT] = 0
	Total_core_cache_stats_breakdown[L1_WRBK_ACC][HIT_RESERVED] = 0
	Total_core_cache_stats_breakdown[L1_WRBK_ACC][MISS] = 0
	Total_core_cache_stats_breakdown[L1_WRBK_ACC][RESERVATION_FAIL] = 0
	Total_core_cache_stats_breakdown[L2_WRBK_ACC][HIT] = 0
	Total_core_cache_stats_breakdown[L2_WRBK_ACC][HIT_RESERVED] = 0
	Total_core_cache_stats_breakdown[L2_WRBK_ACC][MISS] = 0
	Total_core_cache_stats_breakdown[L2_WRBK_ACC][RESERVATION_FAIL] = 0
	Total_core_cache_stats_breakdown[INST_ACC_R][HIT] = 106753
	Total_core_cache_stats_breakdown[INST_ACC_R][HIT_RESERVED] = 0
	Total_core_cache_stats_breakdown[INST_ACC_R][MISS] = 115
	Total_core_cache_stats_breakdown[INST_ACC_R][RESERVATION_FAIL] = 0
	Total_core_cache_stats_breakdown[L1_WR_ALLOC_R][HIT] = 0
	Total_core_cache_stats_breakdown[L1_WR_ALLOC_R][HIT_RESERVED] = 0
	Total_core_cache_stats_breakdown[L1_WR_ALLOC_R][MISS] = 0
	Total_core_cache_stats_breakdown[L1_WR_ALLOC_R][RESERVATION_FAIL] = 0
	Total_core_cache_stats_breakdown[L2_WR_ALLOC_R][HIT] = 0
	Total_core_cache_stats_breakdown[L2_WR_ALLOC_R][HIT_RESERVED] = 0
	Total_core_cache_stats_breakdown[L2_WR_ALLOC_R][MISS] = 0
	Total_core_cache_stats_breakdown[L2_WR_ALLOC_R][RESERVATION_FAIL] = 0
	Total_core_cache_stats_breakdown[CONST_ACC_R][TOTAL_ACCESS] = 120
	Total_core_cache_stats_breakdown[INST_ACC_R][TOTAL_ACCESS] = 106868
Shader 0 warp_id issue ditsribution:
warp_id:

distro:

gpgpu_n_tot_thrd_icount = 6717824
gpgpu_n_tot_w_icount = 209932
gpgpu_n_stall_shd_mem = 1394485
gpgpu_n_mem_read_local = 0
gpgpu_n_mem_write_local = 0
gpgpu_n_mem_read_global = 1485638
gpgpu_n_mem_write_global = 45600
gpgpu_n_mem_texture = 0
gpgpu_n_mem_const = 5
gpgpu_n_load_insn  = 2881200
gpgpu_n_store_insn = 1440000
gpgpu_n_shmem_insn = 0
gpgpu_n_tex_insn = 0
gpgpu_n_const_mem_insn = 0
gpgpu_n_param_mem_insn = 3840
gpgpu_n_shmem_bkconflict = 0
gpgpu_n_cache_bkconflict = 0
gpgpu_n_intrawarp_mshr_merge = 0
gpgpu_n_cmem_portconflict = 0
gpgpu_stall_shd_mem[c_mem][bk_conf] = 0
gpgpu_stall_shd_mem[c_mem][mshr_rc] = 0
gpgpu_stall_shd_mem[c_mem][icnt_rc] = 0
gpgpu_stall_shd_mem[c_mem][data_port_stall] = 0
gpgpu_stall_shd_mem[t_mem][mshr_rc] = 0
gpgpu_stall_shd_mem[t_mem][icnt_rc] = 0
gpgpu_stall_shd_mem[t_mem][data_port_stall] = 0
gpgpu_stall_shd_mem[s_mem][bk_conf] = 0
gpgpu_stall_shd_mem[gl_mem][bk_conf] = 0
gpgpu_stall_shd_mem[gl_mem][coal_stall] = 1394444
gpgpu_stall_shd_mem[gl_mem][data_port_stall] = 0
gpgpu_stall_shd_mem[g_mem_ld][mshr_rc] = 0
gpgpu_stall_shd_mem[g_mem_ld][icnt_rc] = 41
gpgpu_stall_shd_mem[g_mem_ld][wb_icnt_rc] = 0
gpgpu_stall_shd_mem[g_mem_ld][wb_rsrv_fail] = 0
gpgpu_stall_shd_mem[g_mem_st][mshr_rc] = 0
gpgpu_stall_shd_mem[g_mem_st][icnt_rc] = 0
gpgpu_stall_shd_mem[g_mem_st][wb_icnt_rc] = 0
gpgpu_stall_shd_mem[g_mem_st][wb_rsrv_fail] = 0
gpgpu_stall_shd_mem[l_mem_ld][mshr_rc] = 0
gpgpu_stall_shd_mem[l_mem_ld][icnt_rc] = 0
gpgpu_stall_shd_mem[l_mem_ld][wb_icnt_rc] = 0
gpgpu_stall_shd_mem[l_mem_ld][wb_rsrv_fail] = 0
gpgpu_stall_shd_mem[l_mem_st][mshr_rc] = 0
gpgpu_stall_shd_mem[l_mem_st][icnt_rc] = 0
gpgpu_stall_shd_mem[l_mem_ld][wb_icnt_rc] = 0
gpgpu_stall_shd_mem[l_mem_ld][wb_rsrv_fail] = 0
gpu_reg_bank_conflict_stalls = 0
Warp Occupancy Distribution:
Stall:683	W0_Idle:1039766	W0_Scoreboard:19704264	W1:0	W2:0	W3:0	W4:0	W5:0	W6:0	W7:0	W8:0	W9:0	W10:0	W11:0	W12:0	W13:0	W14:0	W15:0	W16:5514	W17:0	W18:0	W19:0	W20:0	W21:0	W22:0	W23:0	W24:0	W25:0	W26:0	W27:0	W28:0	W29:0	W30:0	W31:0	W32:204418
traffic_breakdown_coretomem[CONST_ACC_R] = 40 {8:5,}
traffic_breakdown_coretomem[GLOBAL_ACC_R] = 11885104 {8:1485638,}
traffic_breakdown_coretomem[GLOBAL_ACC_W] = 6124800 {72:1200,136:44400,}
traffic_breakdown_coretomem[INST_ACC_R] = 200 {8:25,}
traffic_breakdown_memtocore[CONST_ACC_R] = 360 {72:5,}
traffic_breakdown_memtocore[GLOBAL_ACC_R] = 59429104 {40:1485600,72:1,136:37,}
traffic_breakdown_memtocore[GLOBAL_ACC_W] = 364800 {8:45600,}
traffic_breakdown_memtocore[INST_ACC_R] = 3400 {136:25,}
maxmrqlatency = 18 
maxdqlatency = 0 
maxmflatency = 804913 
averagemflatency = 808 
max_icnt2mem_latency = 804708 
max_icnt2sh_latency = 2411433 
mrq_lat_table:45146 	23 	32 	61 	19 	0 	0 	0 	0 	0 	0 	0 	0 	0 	0 	0 	0 	0 	0 	0 	0 	0 	0 	0 	0 	0 	0 	0 	0 	0 	0 	0 	
dq_lat_table:0 	0 	0 	0 	0 	0 	0 	0 	0 	0 	0 	0 	0 	0 	0 	0 	0 	0 	0 	0 	0 	0 	0 	0 	0 	0 	0 	0 	0 	0 	0 	0 	
mf_lat_table:0 	0 	0 	0 	0 	0 	0 	1483966 	44739 	0 	0 	32 	0 	45 	27 	88 	171 	449 	887 	839 	0 	0 	0 	0 	0 	0 	0 	0 	0 	0 	0 	0 	
icnt2mem_lat_table:0 	0 	1310469 	216879 	1163 	1 	186 	32 	0 	0 	0 	32 	0 	45 	27 	88 	171 	449 	887 	839 	0 	0 	0 	0 	
icnt2sh_lat_table:0 	0 	360266 	320354 	477430 	265812 	61129 	652 	0 	0 	0 	0 	0 	0 	0 	0 	0 	0 	0 	0 	39330 	6270 	0 	0 	
mf_lat_pw_table:0 	0 	0 	0 	0 	0 	0 	2501 	4 	24 	13 	17 	20 	30 	10 	8 	11 	27 	24 	13 	0 	0 	0 	0 	0 	0 	0 	0 	0 	0 	0 	0 	
maximum concurrent accesses to same row:
dram[0]:         3         3         2         2         2         2         3         3         3         3         4         3         3         3         3         3 
dram[1]:         4         3         2         2         2         2         3         3         3         3         3         3         3         3         3         3 
dram[2]:         4         4         3         3         2         2         2         3         3         3         4         4         4         4         3         3 
dram[3]:         3         3         2         2         2         2         3         3         3         3         4         5         5         5         3         3 
dram[4]:         5         4         2         3         2         2         2         2         3         3         4         5         3         3         2         3 
dram[5]:         3         4         2         3         2         2         2         2         3         3         4         4         3         4         5         2 
dram[6]:         3         3         3         3         2         2         2         2         3         4         4         5         4         4         3         5 
dram[7]:         3         3         2         3         2         2         2         3         3         3         5         4         4         3         3         3 
dram[8]:         3         4         2         2         2         2         3         2         2         2         4         3         3         3         3         3 
dram[9]:         4         3         3         3         2         2         2         2         2         3         3         4         3         4         3         3 
dram[10]:         4         3         2         2         2         2         2         3         3         3         4         4         4         3         3         3 
maximum service time to same row:
dram[0]:    279240    324995    227461    287774    270302    224878    211986    335222    299509    208010    216302    207291    228733    216301    332841    228743 
dram[1]:    228753    332327    300923    228763    228770    208969    282163    208125    251324    311324    207889    324637    219803    200299    219797    284378 
dram[2]:    233405    250132    223588    227896    228774    265823    293092    273546    208058    269694    351379    271341    228729    351390    192729    228739 
dram[3]:    238017    282968    250133    211924    215401    170032    254807    207336    270126    255963    180071    275698    332764    157463    195410    332764 
dram[4]:    293056    278980    258896    227462    208010    270305    229793    200299    214272    251320    324643    206811    361991    238017    207887    284379 
dram[5]:    397494    228755    287775    397494    282234    265823    335224    282234    200299    255956    169215    279658    219798    228728    228746    219798 
dram[6]:    227879    295809    228765    227461    208969    270300    273546    274329    311396    270127    324639    206812    271418    228732    180500    191456 
dram[7]:    268249    189020    290299    216302    208122    215400    302985    282163    269695    251322    372743    208146    195401    332764    228741    216303 
dram[8]:    282968    293056    228761    216301    386335    228771    159527    229794    463247    215891    222395    238017    207886    219803    361912    278815 
dram[9]:    293095    342466    293056    337491    313801    282234    228527    369686    228085    158422    208057    324638    238017    271340    340995    302946 
dram[10]:    233369    293056    342465    238888    265823    208010    381499    273546    255965    216302    372821    324641    195400    332842    332764    195410 
average row accesses per activate:
dram[0]:  1.061983  1.061983  1.032000  1.031621  1.044715  1.032129  1.028112  1.032258  1.035857  1.040161  1.062762  1.049793  1.044715  1.048980  1.040650  1.044898 
dram[1]:  1.066667  1.062241  1.032000  1.027888  1.044715  1.048780  1.023715  1.028000  1.031873  1.023622  1.053061  1.058333  1.053061  1.048980  1.036290  1.032258 
dram[2]:  1.066390  1.070833  1.032000  1.044715  1.053279  1.053498  1.023715  1.036290  1.027778  1.031621  1.066667  1.071429  1.057851  1.053061  1.032258  1.044898 
dram[3]:  1.071130  1.080169  1.035433  1.035857  1.057377  1.057613  1.040486  1.036437  1.035857  1.027559  1.062500  1.076271  1.062241  1.044534  1.036290  1.040650 
dram[4]:  1.075630  1.079832  1.040000  1.036145  1.044534  1.040650  1.027778  1.028000  1.027778  1.027668  1.058333  1.071429  1.040486  1.044715  1.040323  1.032129 
dram[5]:  1.070833  1.075630  1.035857  1.032000  1.036145  1.040486  1.032258  1.023715  1.035857  1.036000  1.062500  1.058091  1.048980  1.057377  1.040486  1.027778 
dram[6]:  1.061983  1.066390  1.044355  1.048583  1.032000  1.040486  1.040323  1.036290  1.031873  1.040323  1.054167  1.053719  1.049180  1.057613  1.044534  1.044898 
dram[7]:  1.061728  1.049180  1.056680  1.048193  1.036437  1.032129  1.040486  1.040323  1.027888  1.032000  1.049383  1.049587  1.057613  1.049180  1.048980  1.040486 
dram[8]:  1.057613  1.062241  1.040161  1.044177  1.027888  1.028000  1.040486  1.023715  1.031873  1.036000  1.054167  1.053942  1.053061  1.048980  1.044898  1.044715 
dram[9]:  1.062241  1.057613  1.044534  1.056911  1.036437  1.040161  1.023904  1.036437  1.027668  1.036000  1.075949  1.071429  1.040486  1.049180  1.049180  1.044715 
dram[10]:  1.070833  1.066390  1.057377  1.065574  1.044715  1.036145  1.027888  1.027888  1.048583  1.040161  1.080508  1.067227  1.057377  1.049180  1.044898  1.044534 
average row locality = 45281/43298 = 1.045799
number of total memory accesses made:
dram[0]:         0         0         0         0         0         0         0         0         0         0         0         0         0         0         0         0 
dram[1]:         0         0         0         0         0         0         0         0         0         0         0         0         0         0         0         0 
dram[2]:         0         0         0         0         0         0         0         0         0         0         0         0         0         0         0         0 
dram[3]:         0         0         0         0         0         0         0         0         0         0         0         0         0         0         0         0 
dram[4]:         0         0         0         0         0         0         0         0         0         0         0         0         0         0         0         0 
dram[5]:         0         0         0         0         0         0         0         0         0         0         0         0         0         0         0         0 
dram[6]:         0         0         0         0         0         0         0         0         0         0         0         0         0         0         0         0 
dram[7]:         0         0         0         0         0         0         0         0         0         0         0         0         0         0         0         0 
dram[8]:         0         0         0         0         0         0         0         0         0         0         0         0         0         0         0         0 
dram[9]:         0         0         0         0         0         0         0         0         0         0         0         0         0         0         0         0 
dram[10]:         0         0         0         0         0         0         0         0         0         0         0         0         0         0         0         0 
total accesses: 0
min_bank_accesses = 0!
min_chip_accesses = 0!
number of total read accesses:
dram[0]:       257       257       258       261       257       257       256       256       260       259       254       253       257       257       256       256 
dram[1]:       256       256       258       258       257       258       259       257       258       259       258       254       258       257       257       256 
dram[2]:       257       257       258       257       257       256       259       257       258       260       256       255       256       258       256       256 
dram[3]:       256       256       263       260       258       257       257       256       259       260       255       254       256       258       257       256 
dram[4]:       256       257       260       258       258       256       259       257       258       259       254       255       257       257       258       257 
dram[5]:       257       256       260       258       258       257       256       259       259       258       255       255       257       258       257       259 
dram[6]:       257       257       259       259       258       257       258       257       258       258       253       255       256       257       258       256 
dram[7]:       258       256       261       261       256       257       257       258       258       258       255       254       257       256       257       257 
dram[8]:       257       256       259       260       258       257       257       259       258       258       253       254       258       257       256       257 
dram[9]:       256       257       258       260       256       259       257       256       259       259       255       255       257       256       256       257 
dram[10]:       257       257       258       260       257       258       258       258       258       258       255       254       258       256       256       258 
total reads: 45265
bank skew: 263/253 = 1.04
chip skew: 4119/4111 = 1.00
number of total write accesses:
dram[0]:         0         0         0         0         0         0         0         0         0         0         0         0         0         0         0         0 
dram[1]:         0         0         0         0         0         0         0         0         1         1         0         0         0         0         0         0 
dram[2]:         0         0         0         0         0         0         0         0         1         1         0         0         0         0         0         0 
dram[3]:         0         0         0         0         0         0         0         0         1         1         0         0         0         0         0         0 
dram[4]:         0         0         0         0         0         0         0         0         1         1         0         0         0         0         0         0 
dram[5]:         0         0         0         0         0         0         0         0         1         1         0         0         0         0         0         0 
dram[6]:         0         0         0         0         0         0         0         0         1         0         0         0         0         0         0         0 
dram[7]:         0         0         0         0         0         0         0         0         0         0         0         0         0         0         0         0 
dram[8]:         0         0         0         0         0         0         0         0         1         1         0         0         0         0         0         0 
dram[9]:         0         0         0         0         0         0         0         0         1         0         0         0         0         0         0         0 
dram[10]:         0         0         0         0         0         0         0         0         1         1         0         0         0         0         0         0 
total reads: 16
min_bank_accesses = 0!
min_chip_accesses = 0!
average mf latency per bank:
dram[0]:      25273     27931     25746     30723     29584     20088     22966     26305     31905     27679     27324     29261     25509     19926     27177     24629
dram[1]:      29786     25185     22975     25600     24099     24574     31096     27927     27796     30361     29604     22774     28800     33338     23707     25868
dram[2]:      27166     33607     30734     28506     24918     23772     27636     26281     32053     30957     27594     21046     26425     26774     30701     22429
dram[3]:      18610     28164     88693     23303     27324     29298     27476     24996     28310     27484     26500     25964     23904     28157     28002     25862
dram[4]:      29369     33516     29561     23710     23480     26167     30176     25654     29862     29642     27419     26447     24449     27299     28081     23360
dram[5]:      26049     26782     30451     25427     24305     26560     25152     28797     28748     27473     25943     27833     25862     31284     23175     26236
dram[6]:      30331     26647     26650     24578     24190     28316     26311     28968     34224     29530     18895     26160     29085     23350     26708     33958
dram[7]:      30418     23486     28241     27009     26134     27607     25651     24221     28948     25924     26204     30093     21447     27664     22150     20871
dram[8]:      29294     28309     22436     25411     26852     25742     26662     34234     25218     25516     27681     28847     25808     28578     26352     27126
dram[9]:      33576     25750     28040     32917     23308     27696     28484     20606     28382     36667     28268     24110     29474     22075     20127     25610
dram[10]:      27042     26999     21190     28287     26657     26409     31040     30005     29711     31946     27863     24525     26011     30513     29690     22945
maximum mf latency per bank:
dram[0]:     722710    804840    804862    782139    786485    735424    758261    786468    786469    758271    786515    786472    760593    786525    804849    686880
dram[1]:     722832    786503    786495    735422    674338    786504    782145    758288    786509    786507    769917    786480    804913    786514    786480    804850
dram[2]:     795219    804850    804870    735537    735442    674423    786468    786468    758280    786470    786512    769915    760594    786512    804859    795215
dram[3]:     665978    786480    804869    782120    782152    786495    695511    758259    786508    695516    758271    786510    788673    769915    786525    804860
dram[4]:     804906    722714    786472    735553    782139    786493    786471    758264    786511    786468    672503    786519    804896    760593    769907    804860
dram[5]:     804852    786490    674350    786503    782158    674321    786477    782112    758285    786473    786473    786516    786535    760594    706411    804870
dram[6]:     804862    795211    786482    804878    786467    786502    695511    786475    786511    769901    786472    786526    786518    760594    795210    804870
dram[7]:     804862    722720    771528    786510    735543    782122    786469    695517    758265    786514    786471    769901    786518    804903    795219    786500
dram[8]:     786492    804886    735429    786483    786502    735434    758274    786472    672403    758277    786511    786520    769924    804880    804872    769915
dram[9]:     804872    795216    735530    804863    786500    782130    758272    786470    786477    786508    769902    786476    786525    769924    795213    786516
dram[10]:     786502    804840    735530    786493    786509    782130    782122    786468    786468    786510    786509    710551    760639    804831    804849    795211
Memory Partition 0: 
Cache L2_bank_000:
MSHR contents

Cache L2_bank_001:
MSHR contents

In Dram Latency Queue (total = 0): 
DRAM[0]: 16 bks, busW=4 BL=8 CL=12, tRRD=2 tCCD=6, tRCD=12 tRAS=28 tRP=12 tRC=40
n_cmd=4065178 n_nop=4040866 n_act=3942 n_pre=3926 n_req=4111 n_rd=16444 n_write=0 bw_util=0.00809
n_activity=157673 dram_eff=0.2086
bk0: 1028a 4057261i bk1: 1028a 4057264i bk2: 1032a 4057125i bk3: 1044a 4056995i bk4: 1028a 4057248i bk5: 1028a 4057080i bk6: 1024a 4057130i bk7: 1024a 4057077i bk8: 1040a 4057061i bk9: 1036a 4057053i bk10: 1016a 4057384i bk11: 1012a 4057318i bk12: 1028a 4057244i bk13: 1028a 4057165i bk14: 1024a 4057222i bk15: 1024a 4057163i 
dram_util_bins: 0 0 0 0 0 0 0 0 0 0
dram_eff_bins: 0 0 0 0 0 0 0 0 0 0
mrqq: max=2 avg=3.12409e-05
Memory Partition 1: 
Cache L2_bank_002:
MSHR contents

Cache L2_bank_003:
MSHR contents

In Dram Latency Queue (total = 0): 
DRAM[1]: 16 bks, busW=4 BL=8 CL=12, tRRD=2 tCCD=6, tRCD=12 tRAS=28 tRP=12 tRC=40
n_cmd=4065178 n_nop=4040816 n_act=3953 n_pre=3937 n_req=4118 n_rd=16464 n_write=8 bw_util=0.008104
n_activity=158258 dram_eff=0.2082
bk0: 1024a 4057360i bk1: 1024a 4057297i bk2: 1032a 4057142i bk3: 1032a 4057059i bk4: 1028a 4057239i bk5: 1032a 4057144i bk6: 1036a 4057008i bk7: 1028a 4057031i bk8: 1032a 4057029i bk9: 1036a 4056878i bk10: 1032a 4057224i bk11: 1016a 4057296i bk12: 1032a 4057195i bk13: 1028a 4057179i bk14: 1028a 4057156i bk15: 1024a 4057112i 
dram_util_bins: 0 0 0 0 0 0 0 0 0 0
dram_eff_bins: 0 0 0 0 0 0 0 0 0 0
mrqq: max=2 avg=5.43642e-05
Memory Partition 2: 
Cache L2_bank_004:
MSHR contents

Cache L2_bank_005:
MSHR contents

In Dram Latency Queue (total = 0): 
DRAM[2]: 16 bks, busW=4 BL=8 CL=12, tRRD=2 tCCD=6, tRCD=12 tRAS=28 tRP=12 tRC=40
n_cmd=4065178 n_nop=4040878 n_act=3928 n_pre=3912 n_req=4115 n_rd=16452 n_write=8 bw_util=0.008098
n_activity=157677 dram_eff=0.2088
bk0: 1028a 4057297i bk1: 1028a 4057317i bk2: 1032a 4057123i bk3: 1028a 4057199i bk4: 1028a 4057288i bk5: 1024a 4057209i bk6: 1036a 4056959i bk7: 1028a 4057063i bk8: 1032a 4057029i bk9: 1040a 4056900i bk10: 1024a 4057335i bk11: 1020a 4057353i bk12: 1024a 4057337i bk13: 1032a 4057177i bk14: 1024a 4057190i bk15: 1024a 4057192i 
dram_util_bins: 0 0 0 0 0 0 0 0 0 0
dram_eff_bins: 0 0 0 0 0 0 0 0 0 0
mrqq: max=2 avg=5.68241e-05
Memory Partition 3: 
Cache L2_bank_006:
MSHR contents

Cache L2_bank_007:
MSHR contents

In Dram Latency Queue (total = 0): 
DRAM[3]: 16 bks, busW=4 BL=8 CL=12, tRRD=2 tCCD=6, tRCD=12 tRAS=28 tRP=12 tRC=40
n_cmd=4065178 n_nop=4040864 n_act=3925 n_pre=3909 n_req=4120 n_rd=16472 n_write=8 bw_util=0.008108
n_activity=157284 dram_eff=0.2096
bk0: 1024a 4057409i bk1: 1024a 4057394i bk2: 1052a 4056985i bk3: 1040a 4057028i bk4: 1032a 4057228i bk5: 1028a 4057242i bk6: 1028a 4057199i bk7: 1024a 4057105i bk8: 1036a 4057025i bk9: 1040a 4056877i bk10: 1020a 4057310i bk11: 1016a 4057420i bk12: 1024a 4057369i bk13: 1032a 4057136i bk14: 1028a 4057155i bk15: 1024a 4057154i 
dram_util_bins: 0 0 0 0 0 0 0 0 0 0
dram_eff_bins: 0 0 0 0 0 0 0 0 0 0
mrqq: max=2 avg=6.59258e-05
Memory Partition 4: 
Cache L2_bank_008:
MSHR contents

Cache L2_bank_009:
MSHR contents

In Dram Latency Queue (total = 0): 
DRAM[4]: 16 bks, busW=4 BL=8 CL=12, tRRD=2 tCCD=6, tRCD=12 tRAS=28 tRP=12 tRC=40
n_cmd=4065178 n_nop=4040836 n_act=3943 n_pre=3927 n_req=4118 n_rd=16464 n_write=8 bw_util=0.008104
n_activity=158166 dram_eff=0.2083
bk0: 1024a 4057393i bk1: 1028a 4057370i bk2: 1040a 4057155i bk3: 1032a 4057101i bk4: 1032a 4057191i bk5: 1024a 4057190i bk6: 1036a 4057080i bk7: 1028a 4057011i bk8: 1032a 4056996i bk9: 1036a 4056915i bk10: 1016a 4057396i bk11: 1020a 4057363i bk12: 1028a 4057192i bk13: 1028a 4057154i bk14: 1032a 4057148i bk15: 1028a 4057058i 
dram_util_bins: 0 0 0 0 0 0 0 0 0 0
dram_eff_bins: 0 0 0 0 0 0 0 0 0 0
mrqq: max=2 avg=4.35405e-05
Memory Partition 5: 
Cache L2_bank_010:
MSHR contents

Cache L2_bank_011:
MSHR contents

In Dram Latency Queue (total = 0): 
DRAM[5]: 16 bks, busW=4 BL=8 CL=12, tRRD=2 tCCD=6, tRCD=12 tRAS=28 tRP=12 tRC=40
n_cmd=4065178 n_nop=4040818 n_act=3946 n_pre=3930 n_req=4121 n_rd=16476 n_write=8 bw_util=0.00811
n_activity=157823 dram_eff=0.2089
bk0: 1028a 4057375i bk1: 1024a 4057387i bk2: 1040a 4057102i bk3: 1032a 4057095i bk4: 1032a 4057122i bk5: 1028a 4057143i bk6: 1024a 4057163i bk7: 1036a 4056925i bk8: 1036a 4057023i bk9: 1032a 4057000i bk10: 1020a 4057328i bk11: 1020a 4057306i bk12: 1028a 4057252i bk13: 1032a 4057209i bk14: 1028a 4057201i bk15: 1036a 4056999i 
dram_util_bins: 0 0 0 0 0 0 0 0 0 0
dram_eff_bins: 0 0 0 0 0 0 0 0 0 0
mrqq: max=2 avg=4.60004e-05
Memory Partition 6: 
Cache L2_bank_012:
MSHR contents

Cache L2_bank_013:
MSHR contents

In Dram Latency Queue (total = 0): 
DRAM[6]: 16 bks, busW=4 BL=8 CL=12, tRRD=2 tCCD=6, tRCD=12 tRAS=28 tRP=12 tRC=40
n_cmd=4065178 n_nop=4040876 n_act=3931 n_pre=3915 n_req=4114 n_rd=16452 n_write=4 bw_util=0.008096
n_activity=157604 dram_eff=0.2088
bk0: 1028a 4057291i bk1: 1028a 4057285i bk2: 1036a 4057205i bk3: 1036a 4057172i bk4: 1032a 4057105i bk5: 1028a 4057124i bk6: 1032a 4057159i bk7: 1028a 4057080i bk8: 1032a 4057022i bk9: 1032a 4057090i bk10: 1012a 4057356i bk11: 1020a 4057242i bk12: 1024a 4057285i bk13: 1028a 4057221i bk14: 1032a 4057137i bk15: 1024a 4057184i 
dram_util_bins: 0 0 0 0 0 0 0 0 0 0
dram_eff_bins: 0 0 0 0 0 0 0 0 0 0
mrqq: max=2 avg=4.74764e-05
Memory Partition 7: 
Cache L2_bank_014:
MSHR contents

Cache L2_bank_015:
MSHR contents

In Dram Latency Queue (total = 0): 
DRAM[7]: 16 bks, busW=4 BL=8 CL=12, tRRD=2 tCCD=6, tRCD=12 tRAS=28 tRP=12 tRC=40
n_cmd=4065178 n_nop=4040852 n_act=3939 n_pre=3923 n_req=4116 n_rd=16464 n_write=0 bw_util=0.0081
n_activity=158404 dram_eff=0.2079
bk0: 1032a 4057240i bk1: 1024a 4057241i bk2: 1044a 4057196i bk3: 1044a 4057087i bk4: 1024a 4057246i bk5: 1028a 4057075i bk6: 1028a 4057203i bk7: 1032a 4057057i bk8: 1032a 4057045i bk9: 1032a 4056997i bk10: 1020a 4057282i bk11: 1016a 4057272i bk12: 1028a 4057269i bk13: 1024a 4057226i bk14: 1028a 4057229i bk15: 1028a 4057119i 
dram_util_bins: 0 0 0 0 0 0 0 0 0 0
dram_eff_bins: 0 0 0 0 0 0 0 0 0 0
mrqq: max=2 avg=5.01823e-05
Memory Partition 8: 
Cache L2_bank_016:
MSHR contents

Cache L2_bank_017:
MSHR contents

In Dram Latency Queue (total = 0): 
DRAM[8]: 16 bks, busW=4 BL=8 CL=12, tRRD=2 tCCD=6, tRCD=12 tRAS=28 tRP=12 tRC=40
n_cmd=4065178 n_nop=4040838 n_act=3946 n_pre=3930 n_req=4116 n_rd=16456 n_write=8 bw_util=0.0081
n_activity=158000 dram_eff=0.2084
bk0: 1028a 4057282i bk1: 1024a 4057265i bk2: 1036a 4057178i bk3: 1040a 4057116i bk4: 1032a 4057126i bk5: 1028a 4057049i bk6: 1028a 4057182i bk7: 1036a 4056949i bk8: 1032a 4057027i bk9: 1032a 4057011i bk10: 1012a 4057362i bk11: 1016a 4057291i bk12: 1032a 4057229i bk13: 1028a 4057153i bk14: 1024a 4057214i bk15: 1028a 4057140i 
dram_util_bins: 0 0 0 0 0 0 0 0 0 0
dram_eff_bins: 0 0 0 0 0 0 0 0 0 0
mrqq: max=2 avg=4.91983e-05
Memory Partition 9: 
Cache L2_bank_018:
MSHR contents

Cache L2_bank_019:
MSHR contents

In Dram Latency Queue (total = 0): 
DRAM[9]: 16 bks, busW=4 BL=8 CL=12, tRRD=2 tCCD=6, tRCD=12 tRAS=28 tRP=12 tRC=40
n_cmd=4065178 n_nop=4040878 n_act=3930 n_pre=3914 n_req=4114 n_rd=16452 n_write=4 bw_util=0.008096
n_activity=157727 dram_eff=0.2087
bk0: 1024a 4057334i bk1: 1028a 4057243i bk2: 1032a 4057220i bk3: 1040a 4057177i bk4: 1024a 4057217i bk5: 1036a 4057032i bk6: 1028a 4057043i bk7: 1024a 4057091i bk8: 1036a 4056936i bk9: 1036a 4057027i bk10: 1020a 4057438i bk11: 1020a 4057394i bk12: 1028a 4057170i bk13: 1024a 4057215i bk14: 1024a 4057267i bk15: 1028a 4057147i 
dram_util_bins: 0 0 0 0 0 0 0 0 0 0
dram_eff_bins: 0 0 0 0 0 0 0 0 0 0
mrqq: max=2 avg=4.50165e-05
Memory Partition 10: 
Cache L2_bank_020:
MSHR contents

Cache L2_bank_021:
MSHR contents

In Dram Latency Queue (total = 0): 
DRAM[10]: 16 bks, busW=4 BL=8 CL=12, tRRD=2 tCCD=6, tRCD=12 tRAS=28 tRP=12 tRC=40
n_cmd=4065178 n_nop=4040890 n_act=3916 n_pre=3900 n_req=4118 n_rd=16464 n_write=8 bw_util=0.008104
n_activity=157190 dram_eff=0.2096
bk0: 1028a 4057329i bk1: 1028a 4057272i bk2: 1032a 4057302i bk3: 1040a 4057226i bk4: 1028a 4057255i bk5: 1032a 4057069i bk6: 1032a 4057053i bk7: 1032a 4057014i bk8: 1032a 4057124i bk9: 1032a 4057008i bk10: 1020a 4057462i bk11: 1016a 4057363i bk12: 1032a 4057221i bk13: 1024a 4057234i bk14: 1024a 4057246i bk15: 1032a 4057115i 
dram_util_bins: 0 0 0 0 0 0 0 0 0 0
dram_eff_bins: 0 0 0 0 0 0 0 0 0 0
mrqq: max=2 avg=7.52735e-05

========= L2 cache stats =========
L2_cache_bank[0]: Access = 69063, Miss = 2055, Miss_rate = 0.030, Pending_hits = 5, Reservation_fails = 0
L2_cache_bank[1]: Access = 69058, Miss = 2056, Miss_rate = 0.030, Pending_hits = 0, Reservation_fails = 0
L2_cache_bank[2]: Access = 69090, Miss = 2061, Miss_rate = 0.030, Pending_hits = 0, Reservation_fails = 0
L2_cache_bank[3]: Access = 69090, Miss = 2055, Miss_rate = 0.030, Pending_hits = 0, Reservation_fails = 0
L2_cache_bank[4]: Access = 69090, Miss = 2057, Miss_rate = 0.030, Pending_hits = 0, Reservation_fails = 0
L2_cache_bank[5]: Access = 69090, Miss = 2056, Miss_rate = 0.030, Pending_hits = 0, Reservation_fails = 0
L2_cache_bank[6]: Access = 70306, Miss = 2061, Miss_rate = 0.029, Pending_hits = 37, Reservation_fails = 0
L2_cache_bank[7]: Access = 70306, Miss = 2057, Miss_rate = 0.029, Pending_hits = 3, Reservation_fails = 0
L2_cache_bank[8]: Access = 70311, Miss = 2060, Miss_rate = 0.029, Pending_hits = 5, Reservation_fails = 0
L2_cache_bank[9]: Access = 70311, Miss = 2056, Miss_rate = 0.029, Pending_hits = 6, Reservation_fails = 0
L2_cache_bank[10]: Access = 70311, Miss = 2059, Miss_rate = 0.029, Pending_hits = 6, Reservation_fails = 0
L2_cache_bank[11]: Access = 70311, Miss = 2060, Miss_rate = 0.029, Pending_hits = 6, Reservation_fails = 0
L2_cache_bank[12]: Access = 69078, Miss = 2057, Miss_rate = 0.030, Pending_hits = 2, Reservation_fails = 0
L2_cache_bank[13]: Access = 69073, Miss = 2056, Miss_rate = 0.030, Pending_hits = 0, Reservation_fails = 0
L2_cache_bank[14]: Access = 69073, Miss = 2059, Miss_rate = 0.030, Pending_hits = 1, Reservation_fails = 0
L2_cache_bank[15]: Access = 69073, Miss = 2057, Miss_rate = 0.030, Pending_hits = 2, Reservation_fails = 0
L2_cache_bank[16]: Access = 69073, Miss = 2056, Miss_rate = 0.030, Pending_hits = 2, Reservation_fails = 0
L2_cache_bank[17]: Access = 69073, Miss = 2058, Miss_rate = 0.030, Pending_hits = 1, Reservation_fails = 0
L2_cache_bank[18]: Access = 70274, Miss = 2054, Miss_rate = 0.029, Pending_hits = 2, Reservation_fails = 0
L2_cache_bank[19]: Access = 70274, Miss = 2059, Miss_rate = 0.029, Pending_hits = 1, Reservation_fails = 0
L2_cache_bank[20]: Access = 70274, Miss = 2057, Miss_rate = 0.029, Pending_hits = 1, Reservation_fails = 0
L2_cache_bank[21]: Access = 69666, Miss = 2059, Miss_rate = 0.030, Pending_hits = 1, Reservation_fails = 0
L2_total_cache_accesses = 1531268
L2_total_cache_misses = 45265
L2_total_cache_miss_rate = 0.0296
L2_total_cache_pending_hits = 81
L2_total_cache_reservation_fails = 0
L2_total_cache_breakdown:
	L2_cache_stats_breakdown[GLOBAL_ACC_R][HIT] = 1440317
	L2_cache_stats_breakdown[GLOBAL_ACC_R][HIT_RESERVED] = 62
	L2_cache_stats_breakdown[GLOBAL_ACC_R][MISS] = 45259
	L2_cache_stats_breakdown[GLOBAL_ACC_R][RESERVATION_FAIL] = 0
	L2_cache_stats_breakdown[LOCAL_ACC_R][HIT] = 0
	L2_cache_stats_breakdown[LOCAL_ACC_R][HIT_RESERVED] = 0
	L2_cache_stats_breakdown[LOCAL_ACC_R][MISS] = 0
	L2_cache_stats_breakdown[LOCAL_ACC_R][RESERVATION_FAIL] = 0
	L2_cache_stats_breakdown[CONST_ACC_R][HIT] = 0
	L2_cache_stats_breakdown[CONST_ACC_R][HIT_RESERVED] = 4
	L2_cache_stats_breakdown[CONST_ACC_R][MISS] = 1
	L2_cache_stats_breakdown[CONST_ACC_R][RESERVATION_FAIL] = 0
	L2_cache_stats_breakdown[TEXTURE_ACC_R][HIT] = 0
	L2_cache_stats_breakdown[TEXTURE_ACC_R][HIT_RESERVED] = 0
	L2_cache_stats_breakdown[TEXTURE_ACC_R][MISS] = 0
	L2_cache_stats_breakdown[TEXTURE_ACC_R][RESERVATION_FAIL] = 0
	L2_cache_stats_breakdown[GLOBAL_ACC_W][HIT] = 45600
	L2_cache_stats_breakdown[GLOBAL_ACC_W][HIT_RESERVED] = 0
	L2_cache_stats_breakdown[GLOBAL_ACC_W][MISS] = 0
	L2_cache_stats_breakdown[GLOBAL_ACC_W][RESERVATION_FAIL] = 0
	L2_cache_stats_breakdown[LOCAL_ACC_W][HIT] = 0
	L2_cache_stats_breakdown[LOCAL_ACC_W][HIT_RESERVED] = 0
	L2_cache_stats_breakdown[LOCAL_ACC_W][MISS] = 0
	L2_cache_stats_breakdown[LOCAL_ACC_W][RESERVATION_FAIL] = 0
	L2_cache_stats_breakdown[L1_WRBK_ACC][HIT] = 0
	L2_cache_stats_breakdown[L1_WRBK_ACC][HIT_RESERVED] = 0
	L2_cache_stats_breakdown[L1_WRBK_ACC][MISS] = 0
	L2_cache_stats_breakdown[L1_WRBK_ACC][RESERVATION_FAIL] = 0
	L2_cache_stats_breakdown[L2_WRBK_ACC][HIT] = 0
	L2_cache_stats_breakdown[L2_WRBK_ACC][HIT_RESERVED] = 0
	L2_cache_stats_breakdown[L2_WRBK_ACC][MISS] = 0
	L2_cache_stats_breakdown[L2_WRBK_ACC][RESERVATION_FAIL] = 0
	L2_cache_stats_breakdown[INST_ACC_R][HIT] = 5
	L2_cache_stats_breakdown[INST_ACC_R][HIT_RESERVED] = 15
	L2_cache_stats_breakdown[INST_ACC_R][MISS] = 5
	L2_cache_stats_breakdown[INST_ACC_R][RESERVATION_FAIL] = 0
	L2_cache_stats_breakdown[L1_WR_ALLOC_R][HIT] = 0
	L2_cache_stats_breakdown[L1_WR_ALLOC_R][HIT_RESERVED] = 0
	L2_cache_stats_breakdown[L1_WR_ALLOC_R][MISS] = 0
	L2_cache_stats_breakdown[L1_WR_ALLOC_R][RESERVATION_FAIL] = 0
	L2_cache_stats_breakdown[L2_WR_ALLOC_R][HIT] = 0
	L2_cache_stats_breakdown[L2_WR_ALLOC_R][HIT_RESERVED] = 0
	L2_cache_stats_breakdown[L2_WR_ALLOC_R][MISS] = 0
	L2_cache_stats_breakdown[L2_WR_ALLOC_R][RESERVATION_FAIL] = 0
	L2_cache_stats_breakdown[GLOBAL_ACC_R][TOTAL_ACCESS] = 1485638
	L2_cache_stats_breakdown[CONST_ACC_R][TOTAL_ACCESS] = 5
	L2_cache_stats_breakdown[GLOBAL_ACC_W][TOTAL_ACCESS] = 45600
	L2_cache_stats_breakdown[INST_ACC_R][TOTAL_ACCESS] = 25
L2_cache_data_port_util = 0.034
L2_cache_fill_port_util = 0.004

icnt_total_pkts_mem_to_simt=3017128
icnt_total_pkts_simt_to_mem=1711268
LD_mem_lat_dist  0 0 0 0 0 0 0 0 0 0 0 0 0 0 0 0 0 0 0 0 0 0 0 0 0 0 0
ST_mem_lat_dist  0 0 0 0 0 0 0 0 0 0 0 0 0 0 0 0 0 0 0 0 0 0 0 0 0 0 0
----------------------------Interconnect-DETAILS--------------------------------
Class 0:
Packet latency average = 26.5249
	minimum = 6
	maximum = 371
Network latency average = 24.8149
	minimum = 6
	maximum = 314
Slowest packet = 3247
Flit latency average = 28.0862
	minimum = 6
	maximum = 313
Slowest flit = 2141699
Fragmentation average = 0
	minimum = 0
	maximum = 0
Injected packet rate average = 0.0139888
	minimum = 0 (at node 0)
	maximum = 0.0745482 (at node 1)
Accepted packet rate average = 0.0139888
	minimum = 0 (at node 0)
	maximum = 0.0745482 (at node 1)
Injected flit rate average = 0.0215979
	minimum = 0 (at node 0)
	maximum = 0.0833181 (at node 1)
Accepted flit rate average= 0.0215979
	minimum = 0 (at node 0)
	maximum = 0.146913 (at node 1)
Injected packet length average = 1.54395
Accepted packet length average = 1.54395
Total in-flight flits = 0 (0 measured)
====== Overall Traffic Statistics ======
====== Traffic class 0 ======
Packet latency average = 26.5249 (1 samples)
	minimum = 6 (1 samples)
	maximum = 371 (1 samples)
Network latency average = 24.8149 (1 samples)
	minimum = 6 (1 samples)
	maximum = 314 (1 samples)
Flit latency average = 28.0862 (1 samples)
	minimum = 6 (1 samples)
	maximum = 313 (1 samples)
Fragmentation average = 0 (1 samples)
	minimum = 0 (1 samples)
	maximum = 0 (1 samples)
Injected packet rate average = 0.0139888 (1 samples)
	minimum = 0 (1 samples)
	maximum = 0.0745482 (1 samples)
Accepted packet rate average = 0.0139888 (1 samples)
	minimum = 0 (1 samples)
	maximum = 0.0745482 (1 samples)
Injected flit rate average = 0.0215979 (1 samples)
	minimum = 0 (1 samples)
	maximum = 0.0833181 (1 samples)
Accepted flit rate average = 0.0215979 (1 samples)
	minimum = 0 (1 samples)
	maximum = 0.146913 (1 samples)
Injected packet size average = 1.54395 (1 samples)
Accepted packet size average = 1.54395 (1 samples)
Hops average = 1 (1 samples)
----------------------------END-of-Interconnect-DETAILS-------------------------


gpgpu_simulation_time = 0 days, 0 hrs, 9 min, 58 sec (598 sec)
gpgpu_simulation_rate = 11082 (inst/sec)
gpgpu_simulation_rate = 4032 (cycle/sec)

GPGPU-Sim PTX: cudaLaunch for 0x0x4010a2 (mode=performance simulation) on stream 0
GPGPU-Sim PTX: pushing kernel '_Z12atax_kernel2PfS_S_' to stream 0, gridDim= (5,1,1) blockDim = (256,1,1) 
GPGPU-Sim uArch: Shader 6 bind to kernel 2 '_Z12atax_kernel2PfS_S_'
GPGPU-Sim uArch: CTA/core = 8, limited by: threads
GPGPU-Sim uArch: Shader 7 bind to kernel 2 '_Z12atax_kernel2PfS_S_'
GPGPU-Sim uArch: Shader 8 bind to kernel 2 '_Z12atax_kernel2PfS_S_'
GPGPU-Sim uArch: Shader 9 bind to kernel 2 '_Z12atax_kernel2PfS_S_'
GPGPU-Sim uArch: Shader 10 bind to kernel 2 '_Z12atax_kernel2PfS_S_'
Destroy streams for kernel 2: size 0
kernel_name = _Z12atax_kernel2PfS_S_ 
kernel_launch_uid = 2 
gpu_sim_cycle = 1065590
gpu_sim_insn = 6738800
gpu_ipc =       6.3240
gpu_tot_sim_cycle = 3699174
gpu_tot_sim_insn = 13366000
gpu_tot_ipc =       3.6132
gpu_tot_issued_cta = 10
max_total_param_size = 0
gpu_stall_dramfull = 123
gpu_stall_icnt2sh    = 314369
partiton_reqs_in_parallel = 23442959
partiton_reqs_in_parallel_total    = 48164146
partiton_level_parallism =      22.0000
partiton_level_parallism_total  =      19.3576
partiton_reqs_in_parallel_util = 23442959
partiton_reqs_in_parallel_util_total    = 48164146
gpu_sim_cycle_parition_util = 1065590
gpu_tot_sim_cycle_parition_util    = 2189284
partiton_level_parallism_util =      22.0000
partiton_level_parallism_util_total  =      22.0000
partiton_replys_in_parallel = 159073
partiton_replys_in_parallel_total    = 1531268
L2_BW  =      14.1495 GB/Sec
L2_BW_total  =      43.3116 GB/Sec
gpu_total_sim_rate=15240

========= Core cache stats =========
L1I_cache:
	L1I_total_cache_accesses = 217384
	L1I_total_cache_misses = 341
	L1I_total_cache_miss_rate = 0.0016
	L1I_total_cache_pending_hits = 0
	L1I_total_cache_reservation_fails = 0
L1D_cache:
	L1D_cache_core[0]: Access = 0, Miss = 0, Miss_rate = -nan, Pending_hits = 0, Reservation_fails = 0
	L1D_cache_core[1]: Access = 0, Miss = 0, Miss_rate = -nan, Pending_hits = 0, Reservation_fails = 0
	L1D_cache_core[2]: Access = 0, Miss = 0, Miss_rate = -nan, Pending_hits = 0, Reservation_fails = 0
	L1D_cache_core[3]: Access = 0, Miss = 0, Miss_rate = -nan, Pending_hits = 0, Reservation_fails = 0
	L1D_cache_core[4]: Access = 0, Miss = 0, Miss_rate = -nan, Pending_hits = 0, Reservation_fails = 0
	L1D_cache_core[5]: Access = 0, Miss = 0, Miss_rate = -nan, Pending_hits = 0, Reservation_fails = 0
	L1D_cache_core[6]: Access = 0, Miss = 0, Miss_rate = -nan, Pending_hits = 0, Reservation_fails = 0
	L1D_cache_core[7]: Access = 0, Miss = 0, Miss_rate = -nan, Pending_hits = 0, Reservation_fails = 0
	L1D_cache_core[8]: Access = 0, Miss = 0, Miss_rate = -nan, Pending_hits = 0, Reservation_fails = 0
	L1D_cache_core[9]: Access = 0, Miss = 0, Miss_rate = -nan, Pending_hits = 0, Reservation_fails = 0
	L1D_cache_core[10]: Access = 0, Miss = 0, Miss_rate = -nan, Pending_hits = 0, Reservation_fails = 0
	L1D_cache_core[11]: Access = 0, Miss = 0, Miss_rate = -nan, Pending_hits = 0, Reservation_fails = 0
	L1D_cache_core[12]: Access = 0, Miss = 0, Miss_rate = -nan, Pending_hits = 0, Reservation_fails = 0
	L1D_cache_core[13]: Access = 0, Miss = 0, Miss_rate = -nan, Pending_hits = 0, Reservation_fails = 0
	L1D_cache_core[14]: Access = 0, Miss = 0, Miss_rate = -nan, Pending_hits = 0, Reservation_fails = 0
	L1D_cache_core[15]: Access = 0, Miss = 0, Miss_rate = -nan, Pending_hits = 0, Reservation_fails = 0
	L1D_cache_core[16]: Access = 0, Miss = 0, Miss_rate = -nan, Pending_hits = 0, Reservation_fails = 0
	L1D_cache_core[17]: Access = 0, Miss = 0, Miss_rate = -nan, Pending_hits = 0, Reservation_fails = 0
	L1D_cache_core[18]: Access = 0, Miss = 0, Miss_rate = -nan, Pending_hits = 0, Reservation_fails = 0
	L1D_cache_core[19]: Access = 0, Miss = 0, Miss_rate = -nan, Pending_hits = 0, Reservation_fails = 0
	L1D_cache_core[20]: Access = 0, Miss = 0, Miss_rate = -nan, Pending_hits = 0, Reservation_fails = 0
	L1D_cache_core[21]: Access = 0, Miss = 0, Miss_rate = -nan, Pending_hits = 0, Reservation_fails = 0
	L1D_cache_core[22]: Access = 0, Miss = 0, Miss_rate = -nan, Pending_hits = 0, Reservation_fails = 0
	L1D_cache_core[23]: Access = 0, Miss = 0, Miss_rate = -nan, Pending_hits = 0, Reservation_fails = 0
	L1D_cache_core[24]: Access = 0, Miss = 0, Miss_rate = -nan, Pending_hits = 0, Reservation_fails = 0
	L1D_cache_core[25]: Access = 0, Miss = 0, Miss_rate = -nan, Pending_hits = 0, Reservation_fails = 0
	L1D_cache_core[26]: Access = 0, Miss = 0, Miss_rate = -nan, Pending_hits = 0, Reservation_fails = 0
	L1D_cache_core[27]: Access = 0, Miss = 0, Miss_rate = -nan, Pending_hits = 0, Reservation_fails = 0
	L1D_total_cache_accesses = 0
	L1D_total_cache_misses = 0
	L1D_total_cache_pending_hits = 0
	L1D_total_cache_reservation_fails = 0
	L1D_cache_data_port_util = 0.000
	L1D_cache_fill_port_util = 0.000
L1C_cache:
	L1C_total_cache_accesses = 240
	L1C_total_cache_misses = 200
	L1C_total_cache_miss_rate = 0.8333
	L1C_total_cache_pending_hits = 0
	L1C_total_cache_reservation_fails = 0
L1T_cache:
	L1T_total_cache_accesses = 0
	L1T_total_cache_misses = 0
	L1T_total_cache_pending_hits = 0
	L1T_total_cache_reservation_fails = 0

Total_core_cache_stats:
	Total_core_cache_stats_breakdown[GLOBAL_ACC_R][HIT] = 0
	Total_core_cache_stats_breakdown[GLOBAL_ACC_R][HIT_RESERVED] = 0
	Total_core_cache_stats_breakdown[GLOBAL_ACC_R][MISS] = 0
	Total_core_cache_stats_breakdown[GLOBAL_ACC_R][RESERVATION_FAIL] = 0
	Total_core_cache_stats_breakdown[LOCAL_ACC_R][HIT] = 0
	Total_core_cache_stats_breakdown[LOCAL_ACC_R][HIT_RESERVED] = 0
	Total_core_cache_stats_breakdown[LOCAL_ACC_R][MISS] = 0
	Total_core_cache_stats_breakdown[LOCAL_ACC_R][RESERVATION_FAIL] = 0
	Total_core_cache_stats_breakdown[CONST_ACC_R][HIT] = 40
	Total_core_cache_stats_breakdown[CONST_ACC_R][HIT_RESERVED] = 0
	Total_core_cache_stats_breakdown[CONST_ACC_R][MISS] = 200
	Total_core_cache_stats_breakdown[CONST_ACC_R][RESERVATION_FAIL] = 0
	Total_core_cache_stats_breakdown[TEXTURE_ACC_R][HIT] = 0
	Total_core_cache_stats_breakdown[TEXTURE_ACC_R][HIT_RESERVED] = 0
	Total_core_cache_stats_breakdown[TEXTURE_ACC_R][MISS] = 0
	Total_core_cache_stats_breakdown[TEXTURE_ACC_R][RESERVATION_FAIL] = 0
	Total_core_cache_stats_breakdown[GLOBAL_ACC_W][HIT] = 0
	Total_core_cache_stats_breakdown[GLOBAL_ACC_W][HIT_RESERVED] = 0
	Total_core_cache_stats_breakdown[GLOBAL_ACC_W][MISS] = 0
	Total_core_cache_stats_breakdown[GLOBAL_ACC_W][RESERVATION_FAIL] = 0
	Total_core_cache_stats_breakdown[LOCAL_ACC_W][HIT] = 0
	Total_core_cache_stats_breakdown[LOCAL_ACC_W][HIT_RESERVED] = 0
	Total_core_cache_stats_breakdown[LOCAL_ACC_W][MISS] = 0
	Total_core_cache_stats_breakdown[LOCAL_ACC_W][RESERVATION_FAIL] = 0
	Total_core_cache_stats_breakdown[L1_WRBK_ACC][HIT] = 0
	Total_core_cache_stats_breakdown[L1_WRBK_ACC][HIT_RESERVED] = 0
	Total_core_cache_stats_breakdown[L1_WRBK_ACC][MISS] = 0
	Total_core_cache_stats_breakdown[L1_WRBK_ACC][RESERVATION_FAIL] = 0
	Total_core_cache_stats_breakdown[L2_WRBK_ACC][HIT] = 0
	Total_core_cache_stats_breakdown[L2_WRBK_ACC][HIT_RESERVED] = 0
	Total_core_cache_stats_breakdown[L2_WRBK_ACC][MISS] = 0
	Total_core_cache_stats_breakdown[L2_WRBK_ACC][RESERVATION_FAIL] = 0
	Total_core_cache_stats_breakdown[INST_ACC_R][HIT] = 217043
	Total_core_cache_stats_breakdown[INST_ACC_R][HIT_RESERVED] = 0
	Total_core_cache_stats_breakdown[INST_ACC_R][MISS] = 341
	Total_core_cache_stats_breakdown[INST_ACC_R][RESERVATION_FAIL] = 0
	Total_core_cache_stats_breakdown[L1_WR_ALLOC_R][HIT] = 0
	Total_core_cache_stats_breakdown[L1_WR_ALLOC_R][HIT_RESERVED] = 0
	Total_core_cache_stats_breakdown[L1_WR_ALLOC_R][MISS] = 0
	Total_core_cache_stats_breakdown[L1_WR_ALLOC_R][RESERVATION_FAIL] = 0
	Total_core_cache_stats_breakdown[L2_WR_ALLOC_R][HIT] = 0
	Total_core_cache_stats_breakdown[L2_WR_ALLOC_R][HIT_RESERVED] = 0
	Total_core_cache_stats_breakdown[L2_WR_ALLOC_R][MISS] = 0
	Total_core_cache_stats_breakdown[L2_WR_ALLOC_R][RESERVATION_FAIL] = 0
	Total_core_cache_stats_breakdown[CONST_ACC_R][TOTAL_ACCESS] = 240
	Total_core_cache_stats_breakdown[INST_ACC_R][TOTAL_ACCESS] = 217384
Shader 0 warp_id issue ditsribution:
warp_id:

distro:

gpgpu_n_tot_thrd_icount = 13548736
gpgpu_n_tot_w_icount = 423398
gpgpu_n_stall_shd_mem = 1417073
gpgpu_n_mem_read_local = 0
gpgpu_n_mem_write_local = 0
gpgpu_n_mem_read_global = 1599076
gpgpu_n_mem_write_global = 91200
gpgpu_n_mem_texture = 0
gpgpu_n_mem_const = 10
gpgpu_n_load_insn  = 5762400
gpgpu_n_store_insn = 2880000
gpgpu_n_shmem_insn = 0
gpgpu_n_tex_insn = 0
gpgpu_n_const_mem_insn = 0
gpgpu_n_param_mem_insn = 7680
gpgpu_n_shmem_bkconflict = 0
gpgpu_n_cache_bkconflict = 0
gpgpu_n_intrawarp_mshr_merge = 0
gpgpu_n_cmem_portconflict = 0
gpgpu_stall_shd_mem[c_mem][bk_conf] = 0
gpgpu_stall_shd_mem[c_mem][mshr_rc] = 0
gpgpu_stall_shd_mem[c_mem][icnt_rc] = 0
gpgpu_stall_shd_mem[c_mem][data_port_stall] = 0
gpgpu_stall_shd_mem[t_mem][mshr_rc] = 0
gpgpu_stall_shd_mem[t_mem][icnt_rc] = 0
gpgpu_stall_shd_mem[t_mem][data_port_stall] = 0
gpgpu_stall_shd_mem[s_mem][bk_conf] = 0
gpgpu_stall_shd_mem[gl_mem][bk_conf] = 0
gpgpu_stall_shd_mem[gl_mem][coal_stall] = 1417032
gpgpu_stall_shd_mem[gl_mem][data_port_stall] = 0
gpgpu_stall_shd_mem[g_mem_ld][mshr_rc] = 0
gpgpu_stall_shd_mem[g_mem_ld][icnt_rc] = 41
gpgpu_stall_shd_mem[g_mem_ld][wb_icnt_rc] = 0
gpgpu_stall_shd_mem[g_mem_ld][wb_rsrv_fail] = 0
gpgpu_stall_shd_mem[g_mem_st][mshr_rc] = 0
gpgpu_stall_shd_mem[g_mem_st][icnt_rc] = 0
gpgpu_stall_shd_mem[g_mem_st][wb_icnt_rc] = 0
gpgpu_stall_shd_mem[g_mem_st][wb_rsrv_fail] = 0
gpgpu_stall_shd_mem[l_mem_ld][mshr_rc] = 0
gpgpu_stall_shd_mem[l_mem_ld][icnt_rc] = 0
gpgpu_stall_shd_mem[l_mem_ld][wb_icnt_rc] = 0
gpgpu_stall_shd_mem[l_mem_ld][wb_rsrv_fail] = 0
gpgpu_stall_shd_mem[l_mem_st][mshr_rc] = 0
gpgpu_stall_shd_mem[l_mem_st][icnt_rc] = 0
gpgpu_stall_shd_mem[l_mem_ld][wb_icnt_rc] = 0
gpgpu_stall_shd_mem[l_mem_ld][wb_rsrv_fail] = 0
gpu_reg_bank_conflict_stalls = 0
Warp Occupancy Distribution:
Stall:9897	W0_Idle:1403218	W0_Scoreboard:29781809	W1:0	W2:0	W3:0	W4:0	W5:0	W6:0	W7:0	W8:0	W9:0	W10:0	W11:0	W12:0	W13:0	W14:0	W15:0	W16:11121	W17:0	W18:0	W19:0	W20:0	W21:0	W22:0	W23:0	W24:0	W25:0	W26:0	W27:0	W28:0	W29:0	W30:0	W31:0	W32:412277
traffic_breakdown_coretomem[CONST_ACC_R] = 80 {8:10,}
traffic_breakdown_coretomem[GLOBAL_ACC_R] = 12792608 {8:1599076,}
traffic_breakdown_coretomem[GLOBAL_ACC_W] = 12249600 {72:2400,136:88800,}
traffic_breakdown_coretomem[INST_ACC_R] = 440 {8:55,}
traffic_breakdown_memtocore[CONST_ACC_R] = 720 {72:10,}
traffic_breakdown_memtocore[GLOBAL_ACC_R] = 67560608 {40:1531200,72:45602,136:22274,}
traffic_breakdown_memtocore[GLOBAL_ACC_W] = 729600 {8:91200,}
traffic_breakdown_memtocore[INST_ACC_R] = 7480 {136:55,}
maxmrqlatency = 24 
maxdqlatency = 0 
maxmflatency = 804913 
averagemflatency = 773 
max_icnt2mem_latency = 804708 
max_icnt2sh_latency = 3664329 
mrq_lat_table:83586 	355 	173 	227 	61 	0 	0 	0 	0 	0 	0 	0 	0 	0 	0 	0 	0 	0 	0 	0 	0 	0 	0 	0 	0 	0 	0 	0 	0 	0 	0 	0 	
dq_lat_table:0 	0 	0 	0 	0 	0 	0 	0 	0 	0 	0 	0 	0 	0 	0 	0 	0 	0 	0 	0 	0 	0 	0 	0 	0 	0 	0 	0 	0 	0 	0 	0 	
mf_lat_table:0 	0 	0 	0 	0 	0 	0 	1588576 	97603 	4 	26 	542 	80 	655 	82 	191 	289 	512 	887 	839 	0 	0 	0 	0 	0 	0 	0 	0 	0 	0 	0 	0 	
icnt2mem_lat_table:0 	0 	1394114 	228323 	1386 	1 	62378 	32 	0 	26 	4 	542 	603 	146 	68 	191 	289 	512 	887 	839 	0 	0 	0 	0 	
icnt2sh_lat_table:0 	0 	463024 	330506 	477962 	265813 	61129 	652 	0 	0 	0 	0 	0 	0 	0 	0 	0 	0 	0 	0 	39330 	51870 	0 	0 	
mf_lat_pw_table:0 	0 	0 	0 	0 	0 	0 	3353 	16 	27 	17 	28 	23 	35 	11 	11 	11 	27 	24 	13 	0 	0 	0 	0 	0 	0 	0 	0 	0 	0 	0 	0 	
maximum concurrent accesses to same row:
dram[0]:        16        16        16        16        16        16        16        16        16        16        16        16        16        16        16        16 
dram[1]:        16        16        16        16        16        16        16        16        16        16        16        16        16        16        16        16 
dram[2]:        16        16        16        16        16        16        16        16        16        16        16        16        16        16        16        16 
dram[3]:        16        16        16        16        16        16        16        16        16        16        16        16        16        16        16        16 
dram[4]:        16        16        16        16        16        16        16        16        16        16        16        16        16        16        16        16 
dram[5]:        16        16        16        16        16        16        16        16        16        16        16        16        16        16        16        16 
dram[6]:        16        16        16        16        16        16        16        16        16        16        16        16        16        16        16        16 
dram[7]:        16        16        16        16        16        16        16        16        16        16        16        16        16        16        16        16 
dram[8]:        16        16        16        16        16        16        16        16        16        16        16        16        16        16        16        16 
dram[9]:        16        16        16        16        16        16        16        16        16        16        16        16        16        16        16        16 
dram[10]:        16        16        16        16        16        16        16        16        16        16        16        16        16        16        16        16 
maximum service time to same row:
dram[0]:    279240    324995    227461    287774    270302    224878    211986    335222    299509    217363    216302    207291    228733    216301    332841    228743 
dram[1]:    228753    332327    300923    228763    228770    208969    282163    208125    251324    311324    207889    324637    219803    200299    219797    284378 
dram[2]:    233405    250132    223588    227896    228774    265823    293092    273546    217392    269694    351379    271341    228729    351390    192729    228739 
[...]
F:  1348460----T:  1352272 	 St: c03f0000 Sz: 20480 	 Sm: 0 	 T: memcpy_h2d(2.573936)
F:  1352022----T:  1360724 	 St: c0380000 Sz: 65536 	 Sm: 0 	 T: write_back(5.875760)
F:  1352272----T:  1358684 	 St: c03f5000 Sz: 45056 	 Sm: 0 	 T: memcpy_h2d(4.329507)
F:  1358684----T:  1390818 	 St: c00a0000 Sz: 270336 	 Sm: 0 	 T: memcpy_h2d(21.697502)
F:  1360724----T:  1369426 	 St: c0540000 Sz: 65536 	 Sm: 0 	 T: write_back(5.875760)
F:  1369426----T:  1378128 	 St: c0550000 Sz: 65536 	 Sm: 0 	 T: write_back(5.875760)
F:  1378128----T:  1386830 	 St: c0120000 Sz: 65536 	 Sm: 0 	 T: write_back(5.875760)
F:  1386830----T:  1395532 	 St: c0130000 Sz: 65536 	 Sm: 0 	 T: write_back(5.875760)
F:  1390818----T:  1413551 	 St: c00e2000 Sz: 188416 	 Sm: 0 	 T: memcpy_h2d(15.349764)
F:  1395532----T:  1404234 	 St: c0140000 Sz: 65536 	 Sm: 0 	 T: write_back(5.875760)
F:  1404234----T:  1412936 	 St: c03f0000 Sz: 65536 	 Sm: 0 	 T: write_back(5.875760)
F:  1412936----T:  1421638 	 St: c0210000 Sz: 65536 	 Sm: 0 	 T: write_back(5.875760)
F:  1413551----T:  1420416 	 St: c0560000 Sz: 49152 	 Sm: 0 	 T: memcpy_h2d(4.635382)
F:  1420416----T:  1430972 	 St: c056c000 Sz: 81920 	 Sm: 0 	 T: memcpy_h2d(7.127616)
F:  1421638----T:  1430340 	 St: c0220000 Sz: 65536 	 Sm: 0 	 T: write_back(5.875760)
F:  1430340----T:  1439042 	 St: c04b0000 Sz: 65536 	 Sm: 0 	 T: write_back(5.875760)
F:  1430972----T:  1435191 	 St: c0020000 Sz: 24576 	 Sm: 0 	 T: memcpy_h2d(2.848751)
F:  1435191----T:  1441152 	 St: c0026000 Sz: 40960 	 Sm: 0 	 T: memcpy_h2d(4.024983)
F:  1439042----T:  1447744 	 St: c04c0000 Sz: 65536 	 Sm: 0 	 T: write_back(5.875760)
F:  1441152----T:  1449854 	 St: c0110000 Sz: 65536 	 Sm: 0 	 T: memcpy_h2d(5.875760)
F:  1447744----T:  1456446 	 St: c01c0000 Sz: 65536 	 Sm: 0 	 T: write_back(5.875760)
F:  1449854----T:  1458556 	 St: c0150000 Sz: 65536 	 Sm: 0 	 T: memcpy_h2d(5.875760)
F:  1456446----T:  1465148 	 St: c01d0000 Sz: 65536 	 Sm: 0 	 T: write_back(5.875760)
F:  1458556----T:  1461161 	 St: c0030000 Sz: 4096 	 Sm: 0 	 T: memcpy_h2d(1.758947)
F:  1461161----T:  1469401 	 St: c0031000 Sz: 61440 	 Sm: 0 	 T: memcpy_h2d(5.563808)
F:  1465148----T:  1473850 	 St: c02e0000 Sz: 65536 	 Sm: 0 	 T: write_back(5.875760)
F:  1469401----T:  1472006 	 St: c0160000 Sz: 4096 	 Sm: 0 	 T: memcpy_h2d(1.758947)
F:  1472006----T:  1480246 	 St: c0161000 Sz: 61440 	 Sm: 0 	 T: memcpy_h2d(5.563808)
F:  1473850----T:  1482552 	 St: c02f0000 Sz: 65536 	 Sm: 0 	 T: write_back(5.875760)
F:  1480246----T:  1482851 	 St: c0510000 Sz: 4096 	 Sm: 0 	 T: memcpy_h2d(1.758947)
F:  1482552----T:  1491254 	 St: c0300000 Sz: 65536 	 Sm: 0 	 T: write_back(5.875760)
F:  1482851----T:  1491091 	 St: c0511000 Sz: 61440 	 Sm: 0 	 T: memcpy_h2d(5.563808)
F:  1491091----T:  1507254 	 St: c0280000 Sz: 131072 	 Sm: 0 	 T: memcpy_h2d(10.913572)
F:  1491254----T:  1499956 	 St: c0200000 Sz: 65536 	 Sm: 0 	 T: write_back(5.875760)
F:  1499956----T:  1508658 	 St: c0340000 Sz: 65536 	 Sm: 0 	 T: write_back(5.875760)
F:  1507254----T:  1515956 	 St: c02d0000 Sz: 65536 	 Sm: 0 	 T: memcpy_h2d(5.875760)
F:  1508658----T:  1517360 	 St: c0350000 Sz: 65536 	 Sm: 0 	 T: write_back(5.875760)
F:  1515956----T:  1532119 	 St: c0360000 Sz: 131072 	 Sm: 0 	 T: memcpy_h2d(10.913572)
F:  1517360----T:  1526062 	 St: c0310000 Sz: 65536 	 Sm: 0 	 T: write_back(5.875760)
F:  1526062----T:  1542225 	 St: c0320000 Sz: 131072 	 Sm: 0 	 T: write_back(10.913572)
F:  1532119----T:  1538080 	 St: c03a0000 Sz: 40960 	 Sm: 0 	 T: memcpy_h2d(4.024983)
F:  1538080----T:  1542299 	 St: c03aa000 Sz: 24576 	 Sm: 0 	 T: memcpy_h2d(2.848751)
F:  1542225----T:  1550927 	 St: c0490000 Sz: 65536 	 Sm: 0 	 T: write_back(5.875760)
F:  1542299----T:  1544904 	 St: c03b0000 Sz: 4096 	 Sm: 0 	 T: memcpy_h2d(1.758947)
F:  1544904----T:  1553144 	 St: c03b1000 Sz: 61440 	 Sm: 0 	 T: memcpy_h2d(5.563808)
F:  1550927----T:  1559629 	 St: c04a0000 Sz: 65536 	 Sm: 0 	 T: write_back(5.875760)
F:  1553144----T:  1555749 	 St: c0010000 Sz: 4096 	 Sm: 0 	 T: memcpy_h2d(1.758947)
F:  1555749----T:  1563989 	 St: c0011000 Sz: 61440 	 Sm: 0 	 T: memcpy_h2d(5.563808)
F:  1559629----T:  1568331 	 St: c0440000 Sz: 65536 	 Sm: 0 	 T: write_back(5.875760)
F:  1563989----T:  1580152 	 St: c0170000 Sz: 131072 	 Sm: 0 	 T: memcpy_h2d(10.913572)
F:  1568331----T:  1577033 	 St: c0450000 Sz: 65536 	 Sm: 0 	 T: write_back(5.875760)
F:  1577033----T:  1585735 	 St: c0410000 Sz: 65536 	 Sm: 0 	 T: write_back(5.875760)
F:  1580152----T:  1582757 	 St: c01a0000 Sz: 4096 	 Sm: 0 	 T: memcpy_h2d(1.758947)
F:  1582757----T:  1590997 	 St: c01a1000 Sz: 61440 	 Sm: 0 	 T: memcpy_h2d(5.563808)
F:  1585735----T:  1594437 	 St: c0420000 Sz: 65536 	 Sm: 0 	 T: write_back(5.875760)
F:  1590997----T:  1593602 	 St: c01b0000 Sz: 4096 	 Sm: 0 	 T: memcpy_h2d(1.758947)
F:  1593602----T:  1601842 	 St: c01b1000 Sz: 61440 	 Sm: 0 	 T: memcpy_h2d(5.563808)
F:  1594437----T:  1603139 	 St: c0430000 Sz: 65536 	 Sm: 0 	 T: write_back(5.875760)
F:  1601842----T:  1605272 	 St: c02a0000 Sz: 16384 	 Sm: 0 	 T: memcpy_h2d(2.316003)
F:  1603139----T:  1626811 	 St: c0460000 Sz: 196608 	 Sm: 0 	 T: write_back(15.983795)
F:  1605272----T:  1612137 	 St: c02a4000 Sz: 49152 	 Sm: 0 	 T: memcpy_h2d(4.635382)
F:  1612137----T:  1614742 	 St: c0390000 Sz: 4096 	 Sm: 0 	 T: memcpy_h2d(1.758947)
F:  1614742----T:  1622982 	 St: c0391000 Sz: 61440 	 Sm: 0 	 T: memcpy_h2d(5.563808)
F:  1622982----T:  1625587 	 St: c0520000 Sz: 4096 	 Sm: 0 	 T: memcpy_h2d(1.758947)
F:  1625587----T:  1633827 	 St: c0521000 Sz: 61440 	 Sm: 0 	 T: memcpy_h2d(5.563808)
F:  1626811----T:  1650483 	 St: c04d0000 Sz: 196608 	 Sm: 0 	 T: write_back(15.983795)
F:  1633827----T:  1687603 	 St: c0590000 Sz: 458752 	 Sm: 0 	 T: memcpy_h2d(36.310600)
F:  1687603----T:  1690208 	 St: c0530000 Sz: 4096 	 Sm: 0 	 T: memcpy_h2d(1.758947)
F:  1690208----T:  1698448 	 St: c0531000 Sz: 61440 	 Sm: 0 	 T: memcpy_h2d(5.563808)
F:  1698448----T:  1714611 	 St: c02b0000 Sz: 131072 	 Sm: 0 	 T: memcpy_h2d(10.913572)
F:  1714611----T:  1723313 	 St: c0380000 Sz: 65536 	 Sm: 0 	 T: memcpy_h2d(5.875760)
F:  1723313----T:  1732015 	 St: c03c0000 Sz: 65536 	 Sm: 0 	 T: memcpy_h2d(5.875760)
F:  1732015----T:  1734620 	 St: c03d0000 Sz: 4096 	 Sm: 0 	 T: memcpy_h2d(1.758947)
F:  1734620----T:  1742860 	 St: c03d1000 Sz: 61440 	 Sm: 0 	 T: memcpy_h2d(5.563808)
F:  1742860----T:  1745465 	 St: c03e0000 Sz: 4096 	 Sm: 0 	 T: memcpy_h2d(1.758947)
F:  1745465----T:  1753705 	 St: c03e1000 Sz: 61440 	 Sm: 0 	 T: memcpy_h2d(5.563808)
F:  1753705----T:  1756310 	 St: c0400000 Sz: 4096 	 Sm: 0 	 T: memcpy_h2d(1.758947)
F:  1756310----T:  1764550 	 St: c0401000 Sz: 61440 	 Sm: 0 	 T: memcpy_h2d(5.563808)
F:  1764550----T:  1769191 	 St: c0540000 Sz: 28672 	 Sm: 0 	 T: memcpy_h2d(3.133693)
F:  1765049----T:  1773751 	 St: c0510000 Sz: 65536 	 Sm: 0 	 T: write_back(5.875760)
F:  1769191----T:  1774706 	 St: c0547000 Sz: 36864 	 Sm: 0 	 T: memcpy_h2d(3.723835)
F:  1773751----T:  1782453 	 St: c0590000 Sz: 65536 	 Sm: 0 	 T: write_back(5.875760)
F:  1774706----T:  1777311 	 St: c0550000 Sz: 4096 	 Sm: 0 	 T: memcpy_h2d(1.758947)
F:  1777311----T:  1785551 	 St: c0551000 Sz: 61440 	 Sm: 0 	 T: memcpy_h2d(5.563808)
F:  1782453----T:  1791155 	 St: c05a0000 Sz: 65536 	 Sm: 0 	 T: write_back(5.875760)
F:  1785551----T:  1794253 	 St: c0000000 Sz: 65536 	 Sm: 0 	 T: memcpy_h2d(5.875760)
F:  1791155----T:  1799857 	 St: c05b0000 Sz: 65536 	 Sm: 0 	 T: write_back(5.875760)
F:  1794253----T:  1796858 	 St: c0120000 Sz: 4096 	 Sm: 0 	 T: memcpy_h2d(1.758947)
F:  1796858----T:  1820061 	 St: c0121000 Sz: 192512 	 Sm: 0 	 T: memcpy_h2d(15.667117)
F:  1799857----T:  1808559 	 St: c05c0000 Sz: 65536 	 Sm: 0 	 T: write_back(5.875760)
F:  1808559----T:  1832231 	 St: c05d0000 Sz: 196608 	 Sm: 0 	 T: write_back(15.983795)
F:  1820061----T:  1828763 	 St: c0190000 Sz: 65536 	 Sm: 0 	 T: memcpy_h2d(5.875760)
F:  1828763----T:  1837465 	 St: c01c0000 Sz: 65536 	 Sm: 0 	 T: memcpy_h2d(5.875760)
F:  1832231----T:  1840933 	 St: c02d0000 Sz: 65536 	 Sm: 0 	 T: write_back(5.875760)
F:  1837465----T:  1840070 	 St: c0500000 Sz: 4096 	 Sm: 0 	 T: memcpy_h2d(1.758947)
F:  1840070----T:  1848310 	 St: c0501000 Sz: 61440 	 Sm: 0 	 T: memcpy_h2d(5.563808)
F:  1840933----T:  1849635 	 St: c0360000 Sz: 65536 	 Sm: 0 	 T: write_back(5.875760)
F:  1848310----T:  1871982 	 St: c0200000 Sz: 196608 	 Sm: 0 	 T: memcpy_h2d(15.983795)
F:  1849635----T:  1858337 	 St: c0400000 Sz: 65536 	 Sm: 0 	 T: write_back(5.875760)
F:  1858337----T:  1867039 	 St: c0570000 Sz: 65536 	 Sm: 0 	 T: write_back(5.875760)
F:  1867039----T:  1875741 	 St: c0500000 Sz: 65536 	 Sm: 0 	 T: write_back(5.875760)
F:  1871982----T:  1874782 	 St: c02e0000 Sz: 8192 	 Sm: 0 	 T: memcpy_h2d(1.890614)
F:  1874782----T:  1897515 	 St: c02e2000 Sz: 188416 	 Sm: 0 	 T: memcpy_h2d(15.349764)
F:  1875741----T:  1884443 	 St: c0370000 Sz: 65536 	 Sm: 0 	 T: write_back(5.875760)
F:  1884443----T:  1893145 	 St: c0230000 Sz: 65536 	 Sm: 0 	 T: write_back(5.875760)
F:  1893145----T:  1901847 	 St: c0240000 Sz: 65536 	 Sm: 0 	 T: write_back(5.875760)
F:  1897515----T:  1913678 	 St: c0340000 Sz: 131072 	 Sm: 0 	 T: memcpy_h2d(10.913572)
F:  1901847----T:  1910549 	 St: c0250000 Sz: 65536 	 Sm: 0 	 T: write_back(5.875760)
F:  1910549----T:  1919251 	 St: c01e0000 Sz: 65536 	 Sm: 0 	 T: write_back(5.875760)
F:  1913678----T:  1922380 	 St: c03f0000 Sz: 65536 	 Sm: 0 	 T: memcpy_h2d(5.875760)
F:  1919251----T:  1927953 	 St: c03d0000 Sz: 65536 	 Sm: 0 	 T: write_back(5.875760)
F:  1922380----T:  1924985 	 St: c0410000 Sz: 4096 	 Sm: 0 	 T: memcpy_h2d(1.758947)
F:  1924985----T:  2000883 	 St: c0411000 Sz: 651264 	 Sm: 0 	 T: memcpy_h2d(51.247807)
F:  1927953----T:  1936655 	 St: c0260000 Sz: 65536 	 Sm: 0 	 T: write_back(5.875760)
F:  1936655----T:  1945357 	 St: c0270000 Sz: 65536 	 Sm: 0 	 T: write_back(5.875760)
F:  1945357----T:  1954059 	 St: c0280000 Sz: 65536 	 Sm: 0 	 T: write_back(5.875760)
F:  1954059----T:  1962761 	 St: c0290000 Sz: 65536 	 Sm: 0 	 T: write_back(5.875760)
F:  1962761----T:  1971463 	 St: c0200000 Sz: 65536 	 Sm: 0 	 T: write_back(5.875760)
F:  1971464----T:  1980166 	 St: c0520000 Sz: 65536 	 Sm: 0 	 T: write_back(5.875760)
F:  1980166----T:  1988868 	 St: c0530000 Sz: 65536 	 Sm: 0 	 T: write_back(5.875760)
F:  1988868----T:  1997570 	 St: c01f0000 Sz: 65536 	 Sm: 0 	 T: write_back(5.875760)
F:  1997570----T:  2006272 	 St: c0050000 Sz: 65536 	 Sm: 0 	 T: write_back(5.875760)
F:  2000883----T:  2024555 	 St: c04d0000 Sz: 196608 	 Sm: 0 	 T: memcpy_h2d(15.983795)
F:  2006273----T:  2014975 	 St: c0210000 Sz: 65536 	 Sm: 0 	 T: write_back(5.875760)
F:  2024555----T:  2027160 	 St: c0510000 Sz: 4096 	 Sm: 0 	 T: memcpy_h2d(1.758947)
F:  2027160----T:  2035400 	 St: c0511000 Sz: 61440 	 Sm: 0 	 T: memcpy_h2d(5.563808)
F:  2035400----T:  2089176 	 St: c0590000 Sz: 458752 	 Sm: 0 	 T: memcpy_h2d(36.310600)
F:  2089176----T:  2105339 	 St: c0230000 Sz: 131072 	 Sm: 0 	 T: memcpy_h2d(10.913572)
F:  2105339----T:  2107944 	 St: c02d0000 Sz: 4096 	 Sm: 0 	 T: memcpy_h2d(1.758947)
F:  2107944----T:  2116184 	 St: c02d1000 Sz: 61440 	 Sm: 0 	 T: memcpy_h2d(5.563808)
F:  2116184----T:  2132347 	 St: c0360000 Sz: 131072 	 Sm: 0 	 T: memcpy_h2d(10.913572)
F:  2132347----T:  2134952 	 St: c03d0000 Sz: 4096 	 Sm: 0 	 T: memcpy_h2d(1.758947)
F:  2134952----T:  2143192 	 St: c03d1000 Sz: 61440 	 Sm: 0 	 T: memcpy_h2d(5.563808)
F:  2143192----T:  2151894 	 St: c0400000 Sz: 65536 	 Sm: 0 	 T: memcpy_h2d(5.875760)
F:  2151894----T:  2160596 	 St: c0500000 Sz: 65536 	 Sm: 0 	 T: memcpy_h2d(5.875760)
F:  2160596----T:  2163396 	 St: c0520000 Sz: 8192 	 Sm: 0 	 T: memcpy_h2d(1.890614)
F:  2163396----T:  2171176 	 St: c0522000 Sz: 57344 	 Sm: 0 	 T: memcpy_h2d(5.253207)
F:  2171176----T:  2179878 	 St: c0570000 Sz: 65536 	 Sm: 0 	 T: memcpy_h2d(5.875760)
F:  2171474----T:  2180176 	 St: c0060000 Sz: 65536 	 Sm: 0 	 T: write_back(5.875760)
F:  2179878----T:  2182483 	 St: c0530000 Sz: 4096 	 Sm: 0 	 T: memcpy_h2d(1.758947)
F:  2182483----T:  2190723 	 St: c0531000 Sz: 61440 	 Sm: 0 	 T: memcpy_h2d(5.563808)
F:  2633584----T:  3699174 	 	 	 Kl: 2 	 Sm: 0 	 T: kernel_launch(719.507080)
F:  2634280----T:  2636885 	 St: c0610000 Sz: 4096 	 Sm: 0 	 T: memcpy_h2d(1.758947)
F:  2634280----T:  2642982 	 St: c0040000 Sz: 65536 	 Sm: 0 	 T: write_back(5.875760)
F:  2636885----T:  2645125 	 St: c0611000 Sz: 61440 	 Sm: 0 	 T: memcpy_h2d(5.563808)
F:  2642982----T:  2651684 	 St: c0070000 Sz: 65536 	 Sm: 0 	 T: write_back(5.875760)
F:  2651405----T:  2654010 	 St: c0040000 Sz: 4096 	 Sm: 0 	 T: memcpy_h2d(1.758947)
F:  2651684----T:  2667847 	 St: c0220000 Sz: 131072 	 Sm: 0 	 T: write_back(10.913572)
F:  2667847----T:  2698570 	 St: c0041000 Sz: 258048 	 Sm: 0 	 T: memcpy_h2d(20.744766)
F:  2667847----T:  2676549 	 St: c02f0000 Sz: 65536 	 Sm: 0 	 T: write_back(5.875760)
F:  2676549----T:  2685251 	 St: c0300000 Sz: 65536 	 Sm: 0 	 T: write_back(5.875760)
F:  2685252----T:  2693954 	 St: c0340000 Sz: 65536 	 Sm: 0 	 T: write_back(5.875760)
F:  2698570----T:  2714733 	 St: c01e0000 Sz: 131072 	 Sm: 0 	 T: memcpy_h2d(10.913572)
F:  2807030----T:  2809635 	 St: c01d0000 Sz: 4096 	 Sm: 0 	 T: memcpy_h2d(1.758947)
F:  2807030----T:  2815732 	 St: c02a0000 Sz: 65536 	 Sm: 0 	 T: write_back(5.875760)
F:  2809635----T:  2817875 	 St: c01d1000 Sz: 61440 	 Sm: 0 	 T: memcpy_h2d(5.563808)
F:  2832578----T:  2835183 	 St: c0200000 Sz: 4096 	 Sm: 0 	 T: memcpy_h2d(1.758947)
F:  2832578----T:  2841280 	 St: c02b0000 Sz: 65536 	 Sm: 0 	 T: write_back(5.875760)
F:  2841280----T:  2849982 	 St: c0390000 Sz: 65536 	 Sm: 0 	 T: write_back(5.875760)
F:  2849982----T:  2858684 	 St: c03a0000 Sz: 65536 	 Sm: 0 	 T: write_back(5.875760)
F:  2858684----T:  2889407 	 St: c0201000 Sz: 258048 	 Sm: 0 	 T: memcpy_h2d(20.744766)
F:  2858684----T:  2867386 	 St: c0380000 Sz: 65536 	 Sm: 0 	 T: write_back(5.875760)
F:  2867386----T:  2876088 	 St: c03b0000 Sz: 65536 	 Sm: 0 	 T: write_back(5.875760)
F:  2876088----T:  2884790 	 St: c0240000 Sz: 65536 	 Sm: 0 	 T: write_back(5.875760)
F:  2884790----T:  2915983 	 St: c03c0000 Sz: 262144 	 Sm: 0 	 T: write_back(21.062120)
F:  2889407----T:  2898109 	 St: c02a0000 Sz: 65536 	 Sm: 0 	 T: memcpy_h2d(5.875760)
F:  2898109----T:  2914272 	 St: c02f0000 Sz: 131072 	 Sm: 0 	 T: memcpy_h2d(10.913572)
F:  2914272----T:  2922974 	 St: c0340000 Sz: 65536 	 Sm: 0 	 T: memcpy_h2d(5.875760)
F:  2915983----T:  2924685 	 St: c0600000 Sz: 65536 	 Sm: 0 	 T: write_back(5.875760)
F:  2922974----T:  2925579 	 St: c0240000 Sz: 4096 	 Sm: 0 	 T: memcpy_h2d(1.758947)
F:  2924685----T:  2933387 	 St: c0420000 Sz: 65536 	 Sm: 0 	 T: write_back(5.875760)
F:  2925579----T:  2933819 	 St: c0241000 Sz: 61440 	 Sm: 0 	 T: memcpy_h2d(5.563808)
F:  2933387----T:  2942089 	 St: c0430000 Sz: 65536 	 Sm: 0 	 T: write_back(5.875760)
F:  2933819----T:  2942521 	 St: c02b0000 Sz: 65536 	 Sm: 0 	 T: memcpy_h2d(5.875760)
F:  2942089----T:  2950791 	 St: c0440000 Sz: 65536 	 Sm: 0 	 T: write_back(5.875760)
F:  2950791----T:  2959493 	 St: c0450000 Sz: 65536 	 Sm: 0 	 T: write_back(5.875760)
F:  2959493----T:  2975656 	 St: c0400000 Sz: 131072 	 Sm: 0 	 T: write_back(10.913572)
F:  2975656----T:  3036963 	 St: c0380000 Sz: 524288 	 Sm: 0 	 T: memcpy_h2d(41.395679)
F:  2975656----T:  2991819 	 St: c0460000 Sz: 131072 	 Sm: 0 	 T: write_back(10.913572)
F:  3036963----T:  3039568 	 St: c0250000 Sz: 4096 	 Sm: 0 	 T: memcpy_h2d(1.758947)
F:  3039568----T:  3047808 	 St: c0251000 Sz: 61440 	 Sm: 0 	 T: memcpy_h2d(5.563808)
F:  3052283----T:  3054888 	 St: c0260000 Sz: 4096 	 Sm: 0 	 T: memcpy_h2d(1.758947)
F:  3052283----T:  3075955 	 St: c0480000 Sz: 196608 	 Sm: 0 	 T: write_back(15.983795)
F:  3054888----T:  3063128 	 St: c0261000 Sz: 61440 	 Sm: 0 	 T: memcpy_h2d(5.563808)
F:  3067631----T:  3070236 	 St: c0270000 Sz: 4096 	 Sm: 0 	 T: memcpy_h2d(1.758947)
F:  3070236----T:  3078476 	 St: c0271000 Sz: 61440 	 Sm: 0 	 T: memcpy_h2d(5.563808)
F:  3075955----T:  3099627 	 St: c04d0000 Sz: 196608 	 Sm: 0 	 T: write_back(15.983795)
F:  3082915----T:  3085520 	 St: c0280000 Sz: 4096 	 Sm: 0 	 T: memcpy_h2d(1.758947)
F:  3085520----T:  3093760 	 St: c0281000 Sz: 61440 	 Sm: 0 	 T: memcpy_h2d(5.563808)
F:  3098091----T:  3100696 	 St: c0290000 Sz: 4096 	 Sm: 0 	 T: memcpy_h2d(1.758947)
F:  3100696----T:  3108936 	 St: c0291000 Sz: 61440 	 Sm: 0 	 T: memcpy_h2d(5.563808)
F:  3148644----T:  3151249 	 St: c0310000 Sz: 4096 	 Sm: 0 	 T: memcpy_h2d(1.758947)
F:  3151249----T:  3159489 	 St: c0311000 Sz: 61440 	 Sm: 0 	 T: memcpy_h2d(5.563808)
F:  3163892----T:  3166497 	 St: c0320000 Sz: 4096 	 Sm: 0 	 T: memcpy_h2d(1.758947)
F:  3166497----T:  3174737 	 St: c0321000 Sz: 61440 	 Sm: 0 	 T: memcpy_h2d(5.563808)
F:  3179173----T:  3181778 	 St: c0330000 Sz: 4096 	 Sm: 0 	 T: memcpy_h2d(1.758947)
F:  3179173----T:  3187875 	 St: c0550000 Sz: 65536 	 Sm: 0 	 T: write_back(5.875760)
F:  3181778----T:  3190018 	 St: c0331000 Sz: 61440 	 Sm: 0 	 T: memcpy_h2d(5.563808)
F:  3254772----T:  3257377 	 St: c0400000 Sz: 4096 	 Sm: 0 	 T: memcpy_h2d(1.758947)
F:  3254772----T:  3263474 	 St: c0560000 Sz: 65536 	 Sm: 0 	 T: write_back(5.875760)
F:  3263474----T:  3272176 	 St: c0590000 Sz: 65536 	 Sm: 0 	 T: write_back(5.875760)
F:  3272176----T:  3280878 	 St: c05a0000 Sz: 65536 	 Sm: 0 	 T: write_back(5.875760)
F:  3280878----T:  3289580 	 St: c05b0000 Sz: 65536 	 Sm: 0 	 T: write_back(5.875760)
F:  3289580----T:  3298282 	 St: c05c0000 Sz: 65536 	 Sm: 0 	 T: write_back(5.875760)
F:  3298282----T:  3321954 	 St: c05d0000 Sz: 196608 	 Sm: 0 	 T: write_back(15.983795)
F:  3321954----T:  3405383 	 St: c0401000 Sz: 716800 	 Sm: 0 	 T: memcpy_h2d(56.332882)
F:  3321954----T:  3360673 	 St: c0500000 Sz: 327680 	 Sm: 0 	 T: write_back(26.143822)
F:  3360673----T:  3369375 	 St: c0570000 Sz: 65536 	 Sm: 0 	 T: write_back(5.875760)
F:  3369376----T:  3378078 	 St: c0000000 Sz: 65536 	 Sm: 0 	 T: write_back(5.875760)
F:  3405383----T:  3429055 	 St: c04d0000 Sz: 196608 	 Sm: 0 	 T: memcpy_h2d(15.983795)
F:  3429055----T:  3437757 	 St: c0550000 Sz: 65536 	 Sm: 0 	 T: memcpy_h2d(5.875760)
F:  3460247----T:  3462852 	 St: c04b0000 Sz: 4096 	 Sm: 0 	 T: memcpy_h2d(1.758947)
F:  3460247----T:  3468949 	 St: c0010000 Sz: 65536 	 Sm: 0 	 T: write_back(5.875760)
F:  3462852----T:  3471092 	 St: c04b1000 Sz: 61440 	 Sm: 0 	 T: memcpy_h2d(5.563808)
F:  3468949----T:  3485112 	 St: c0020000 Sz: 131072 	 Sm: 0 	 T: write_back(10.913572)
F:  3485112----T:  3523831 	 St: c0500000 Sz: 327680 	 Sm: 0 	 T: memcpy_h2d(26.143822)
F:  3485112----T:  3516305 	 St: c0040000 Sz: 262144 	 Sm: 0 	 T: write_back(21.062120)
F:  3516305----T:  3577612 	 St: c0080000 Sz: 524288 	 Sm: 0 	 T: write_back(41.395679)
F:  3523831----T:  3539994 	 St: c0560000 Sz: 131072 	 Sm: 0 	 T: memcpy_h2d(10.913572)
F:  3539994----T:  3593770 	 St: c0590000 Sz: 458752 	 Sm: 0 	 T: memcpy_h2d(36.310600)
F:  3577613----T:  3699173 	 St: c0100000 Sz: 1048576 	 Sm: 0 	 T: write_back(82.079674)
F:  3593770----T:  3596375 	 St: c04c0000 Sz: 4096 	 Sm: 0 	 T: memcpy_h2d(1.758947)
F:  3596375----T:  3604615 	 St: c04c1000 Sz: 61440 	 Sm: 0 	 T: memcpy_h2d(5.563808)
F:  3699174----T:  3701779 	 St: 0 Sz: 4096 	 Sm: 0 	 T: device_sync(1.758947)
F:  3699174----T:  3702260 	 St: 0 Sz: 12288 	 Sm: 0 	 T: device_sync(2.083727)
Tot_prefetch_time: 0(cycle), 0.000000(us)
Tot_kernel_exec_time: 3254874(cycle), 2197.754150(us)
Tot_kernel_exec_time_and_fault_time: 9586149(cycle), 6472.754395(us)
Tot_memcpy_h2d_time: 2522367(cycle), 1703.151245(us)
Tot_memcpy_d2h_time: 0(cycle), 0.000000(us)
Tot_memcpy_time: 2522367(cycle), 1703.151245(us)
Tot_devicesync_time: 5691(cycle), 3.842674(us)
Tot_writeback_time: 1886762(cycle), 1273.978394(us)
Tot_dma_time: 0(cycle), 0.000000(us)
Tot_memcpy_d2h_sync_wb_time: 1892453(cycle), 1277.821045(us)
GPGPU-Sim: *** exit detected ***
