

        *** GPGPU-Sim Simulator Version 3.2.2  [build gpgpu-sim_git-commit-32a5e88e7f0bd0281e1f3b1056e517909662bd85_modified_0] ***


GPGPU-Sim PTX: simulation mode 0 (can change with PTX_SIM_MODE_FUNC environment variable:
               1=functional simulation only, 0=detailed performance simulator)
GPGPU-Sim: Configuration options:

-network_mode                           1 # Interconnection network mode
-inter_config_file   config_fermi_islip.icnt # Interconnection network config file
-gpgpu_ptx_use_cuobjdump                    1 # Use cuobjdump to extract ptx and sass from binaries
-gpgpu_experimental_lib_support                    0 # Try to extract code from cuda libraries [Broken because of unknown cudaGetExportTable]
-gpgpu_ptx_convert_to_ptxplus                    0 # Convert SASS (native ISA) to ptxplus and run ptxplus
-gpgpu_ptx_force_max_capability                   20 # Force maximum compute capability
-gpgpu_ptx_inst_debug_to_file                    0 # Dump executed instructions' debug information to file
-gpgpu_ptx_inst_debug_file       inst_debug.txt # Executed instructions' debug output file
-gpgpu_ptx_inst_debug_thread_uid                    1 # Thread UID for executed instructions' debug output
-gpgpu_simd_model                       1 # 1 = post-dominator
-gpgpu_shader_core_pipeline              2048:32 # shader core pipeline config, i.e., {<nthread>:<warpsize>}
-gpgpu_tex_cache:l1  16:128:24,L:R:m:N:L,F:128:4,128:2 # per-shader L1 texture cache  (READ-ONLY) config  {<nsets>:<bsize>:<assoc>,<rep>:<wr>:<alloc>:<wr_alloc>,<mshr>:<N>:<merge>,<mq>:<rf>}
-gpgpu_const_cache:l1 128:64:2,L:R:f:N:L,A:2:64,4 # per-shader L1 constant memory cache  (READ-ONLY) config  {<nsets>:<bsize>:<assoc>,<rep>:<wr>:<alloc>:<wr_alloc>,<mshr>:<N>:<merge>,<mq>} 
-gpgpu_cache:il1     8:128:4,L:R:f:N:L,A:2:48,4 # shader L1 instruction cache config  {<nsets>:<bsize>:<assoc>,<rep>:<wr>:<alloc>:<wr_alloc>,<mshr>:<N>:<merge>,<mq>} 
-gpgpu_cache:dl1     64:128:6,L:L:m:N:H,A:128:8,8 # per-shader L1 data cache config  {<nsets>:<bsize>:<assoc>,<rep>:<wr>:<alloc>:<wr_alloc>,<mshr>:<N>:<merge>,<mq> | none}
-gpgpu_cache:dl1PrefL1                 none # per-shader L1 data cache config  {<nsets>:<bsize>:<assoc>,<rep>:<wr>:<alloc>:<wr_alloc>,<mshr>:<N>:<merge>,<mq> | none}
-gpgpu_cache:dl1PrefShared                 none # per-shader L1 data cache config  {<nsets>:<bsize>:<assoc>,<rep>:<wr>:<alloc>:<wr_alloc>,<mshr>:<N>:<merge>,<mq> | none}
-gmem_skip_L1D                          1 # global memory access skip L1D cache (implements -Xptxas -dlcm=cg, default=no skip)
-gpgpu_perfect_mem                      0 # enable perfect memory mode (no cache miss)
-n_regfile_gating_group                    4 # group of lanes that should be read/written together)
-gpgpu_clock_gated_reg_file                    0 # enable clock gated reg file for power calculations
-gpgpu_clock_gated_lanes                    0 # enable clock gated lanes for power calculations
-gpgpu_shader_registers                65536 # Number of registers per shader core. Limits number of concurrent CTAs. (default 8192)
-gpgpu_shader_cta                      32 # Maximum number of concurrent CTAs in shader (default 8)
-gpgpu_num_cta_barriers                   16 # Maximum number of named barriers per CTA (default 16)
-gpgpu_n_clusters                      28 # number of processing clusters
-gpgpu_n_cores_per_cluster                    1 # number of simd cores per cluster
-gpgpu_n_cluster_ejection_buffer_size                    8 # number of packets in ejection buffer
-gpgpu_n_ldst_response_buffer_size                    2 # number of response packets in ld/st unit ejection buffer
-gpgpu_shmem_size                   16384 # Size of shared memory per shader core (default 16kB)
-gpgpu_shmem_size                   98304 # Size of shared memory per shader core (default 16kB)
-gpgpu_shmem_size_PrefL1                16384 # Size of shared memory per shader core (default 16kB)
-gpgpu_shmem_size_PrefShared                16384 # Size of shared memory per shader core (default 16kB)
-gpgpu_shmem_num_banks                   32 # Number of banks in the shared memory in each shader core (default 16)
-gpgpu_shmem_limited_broadcast                    0 # Limit shared memory to do one broadcast per cycle (default on)
-gpgpu_shmem_warp_parts                    1 # Number of portions a warp is divided into for shared memory bank conflict check 
-gpgpu_warpdistro_shader                   -1 # Specify which shader core to collect the warp size distribution from
-gpgpu_warp_issue_shader                    0 # Specify which shader core to collect the warp issue distribution from
-gpgpu_local_mem_map                    1 # Mapping from local memory space address to simulated GPU physical address space (default = enabled)
-gpgpu_num_reg_banks                   32 # Number of register banks (default = 8)
-gpgpu_reg_bank_use_warp_id                    0 # Use warp ID in mapping registers to banks (default = off)
-gpgpu_operand_collector_num_units_sp                   20 # number of collector units (default = 4)
-gpgpu_operand_collector_num_units_sfu                    4 # number of collector units (default = 4)
-gpgpu_operand_collector_num_units_mem                    8 # number of collector units (default = 2)
-gpgpu_operand_collector_num_units_gen                    0 # number of collector units (default = 0)
-gpgpu_operand_collector_num_in_ports_sp                    4 # number of collector unit in ports (default = 1)
-gpgpu_operand_collector_num_in_ports_sfu                    1 # number of collector unit in ports (default = 1)
-gpgpu_operand_collector_num_in_ports_mem                    1 # number of collector unit in ports (default = 1)
-gpgpu_operand_collector_num_in_ports_gen                    0 # number of collector unit in ports (default = 0)
-gpgpu_operand_collector_num_out_ports_sp                    4 # number of collector unit in ports (default = 1)
-gpgpu_operand_collector_num_out_ports_sfu                    1 # number of collector unit in ports (default = 1)
-gpgpu_operand_collector_num_out_ports_mem                    1 # number of collector unit in ports (default = 1)
-gpgpu_operand_collector_num_out_ports_gen                    0 # number of collector unit in ports (default = 0)
-gpgpu_coalesce_arch                   13 # Coalescing arch (default = 13, anything else is off for now)
-gpgpu_num_sched_per_core                    2 # Number of warp schedulers per core
-gpgpu_max_insn_issue_per_warp                    2 # Max number of instructions that can be issued per warp in one cycle by scheduler
-gpgpu_simt_core_sim_order                    1 # Select the simulation order of cores in a cluster (0=Fix, 1=Round-Robin)
-gpgpu_pipeline_widths        4,1,1,4,1,1,6 # Pipeline widths ID_OC_SP,ID_OC_SFU,ID_OC_MEM,OC_EX_SP,OC_EX_SFU,OC_EX_MEM,EX_WB
-gpgpu_num_sp_units                     4 # Number of SP units (default=1)
-gpgpu_num_sfu_units                    1 # Number of SF units (default=1)
-gpgpu_num_mem_units                    1 # Number if ldst units (default=1) WARNING: not hooked up to anything
-gpgpu_scheduler                      gto # Scheduler configuration: < lrr | gto | two_level_active > If two_level_active:<num_active_warps>:<inner_prioritization>:<outer_prioritization>For complete list of prioritization values see shader.h enum scheduler_prioritization_typeDefault: gto
-gpgpu_concurrent_kernel_sm                    0 # Support concurrent kernels on a SM (default = disabled)
-tlb_size                            4096 # Number of tlb entries per SM.
-gpgpu_dram_scheduler                    1 # 0 = fifo, 1 = FR-FCFS (defaul)
-gpgpu_dram_partition_queues              8:8:8:8 # i2$:$2d:d2$:$2i
-l2_ideal                               0 # Use a ideal L2 cache that always hit
-gpgpu_cache:dl2     64:128:16,L:B:m:W:L,A:1024:1024,4:0,32 # unified banked L2 data cache config  {<nsets>:<bsize>:<assoc>,<rep>:<wr>:<alloc>:<wr_alloc>,<mshr>:<N>:<merge>,<mq>}
-gpgpu_cache:dl2_texture_only                    0 # L2 cache used for texture only
-gpgpu_n_mem                           11 # number of memory modules (e.g. memory controllers) in gpu
-gpgpu_n_sub_partition_per_mchannel                    2 # number of memory subpartition in each memory module
-gpgpu_n_mem_per_ctrlr                    1 # number of memory chips per memory controller
-gpgpu_memlatency_stat                   14 # track and display latency statistics 0x2 enables MC, 0x4 enables queue logs
-gpgpu_frfcfs_dram_sched_queue_size                   64 # 0 = unlimited (default); # entries per chip
-gpgpu_dram_return_queue_size                  116 # 0 = unlimited (default); # entries per chip
-gpgpu_dram_buswidth                    4 # default = 4 bytes (8 bytes per cycle at DDR)
-gpgpu_dram_burst_length                    8 # Burst length of each DRAM request (default = 4 data bus cycle)
-dram_data_command_freq_ratio                    4 # Frequency ratio between DRAM data bus and command bus (default = 2 times, i.e. DDR)
-gpgpu_dram_timing_opt nbk=16:CCD=2:RRD=6:RCD=12:RAS=28:RP=12:RC=40: CL=12:WL=4:CDLR=5:WR=12:nbkgrp=1:CCDL=0:RTPL=0 # DRAM timing parameters = {nbk:tCCD:tRRD:tRCD:tRAS:tRP:tRC:CL:WL:tCDLR:tWR:nbkgrp:tCCDL:tRTPL}
-rop_latency                          120 # ROP queue latency (default 85)
-dram_latency                         100 # DRAM latency (default 30)
-gpgpu_mem_addr_mapping dramid@8;00000000.00000000.00000000.00000000.0000RRRR.RRRRRRRR.RBBBCCCC.BCCSSSSS # mapping memory address to dram model {dramid@<start bit>;<memory address map>}
-gpgpu_mem_addr_test                    0 # run sweep test to check address mapping for aliased address
-gpgpu_mem_address_mask                    1 # 0 = old addressing mask, 1 = new addressing mask, 2 = new add. mask + flipped bank sel and chip sel bits
-gpuwattch_xml_file  gpuwattch_geforcegtx1080ti.xml # GPUWattch XML file
-power_simulation_enabled                    1 # Turn on power simulator (1=On, 0=Off)
-power_per_cycle_dump                    0 # Dump detailed power output each cycle
-power_trace_enabled                    0 # produce a file for the power trace (1=On, 0=Off)
-power_trace_zlevel                     6 # Compression level of the power trace output log (0=no comp, 9=highest)
-steady_power_levels_enabled                    0 # produce a file for the steady power levels (1=On, 0=Off)
-steady_state_definition                  8:4 # allowed deviation:number of samples
-gpgpu_max_cycle                        0 # terminates gpu simulation early (0 = no limit)
-gpgpu_max_insn                         0 # terminates gpu simulation early (0 = no limit)
-gpgpu_max_cta                          0 # terminates gpu simulation early (0 = no limit)
-gpgpu_runtime_stat                   500 # display runtime statistics such as dram utilization {<freq>:<flag>}
-liveness_message_freq                    1 # Minimum number of seconds between simulation liveness messages (0 = always print)
-gpgpu_flush_l1_cache                    0 # Flush L1 cache at the end of each kernel call
-gpgpu_flush_l2_cache                    0 # Flush L2 cache at the end of each kernel call
-gpgpu_deadlock_detect                    0 # Stop the simulation at deadlock (1=on (default), 0=off)
-gpgpu_ptx_instruction_classification                    0 # if enabled will classify ptx instruction types per kernel (Max 255 kernels now)
-gpgpu_ptx_sim_mode                     0 # Select between Performance (default) or Functional simulation (1)
-gpgpu_clock_domains 1481.0:2962.0:1481.0:2750.0 # Clock Domain Frequencies in MhZ {<Core Clock>:<ICNT Clock>:<L2 Clock>:<DRAM Clock>}
-gpgpu_max_concurrent_kernel                    8 # maximum kernels that can run concurrently on GPU
-gpgpu_cflog_interval                    0 # Interval between each snapshot in control flow logger
-visualizer_enabled                     0 # Turn on visualizer output (1=On, 0=Off)
-visualizer_outputfile                 NULL # Specifies the output log file for visualizer
-visualizer_zlevel                      6 # Compression level of the visualizer output log (0=no comp, 9=highest)
-trace_enabled                          0 # Turn on traces
-trace_components                    none # comma seperated list of traces to enable. Complete list found in trace_streams.tup. Default none
-trace_sampling_core                    0 # The core which is printed using CORE_DPRINTF. Default 0
-trace_sampling_memory_partition                   -1 # The memory partition which is printed using MEMPART_DPRINTF. Default -1 (i.e. all)
-gddr_size                            4MB # Size of GDDR in MB/GB.(GLOBAL_HEAP_START, GLOBAL_HEAP_START + gddr_size) would be used for unmanged memory, (GLOBAL_HEAP_START + gddr_size, GLOBAL_HEAP_START + gddr_size*2) would be used for managed memory. 
-page_table_walk_latency                  100 # Average page table walk latency (in core cycle).
-eviction_policy                        0 # Select page eviction policy
-invalidate_clean                       0 # Should directly invalidate clean pages
-reserve_accessed_page_percent                    0 # Percentage of accessed pages reserved from eviction in hope that they will be accessed in next iteration.
-percentage_of_free_page_buffer                    0 # Percentage of free page buffer to trigger the page eviction.
-page_size                            4KB # GDDR page size, only 4KB/2MB avaliable.
-pcie_bandwidth                  16.0GB/s # PCI-e bandwidth per direction, in GB/s.
-enable_dma                             0 # Enable direct access to CPU memory
-multiply_dma_penalty                    2 # Oversubscription Multiplicative Penalty Factor for Adaptive DMA
-migrate_threshold                      8 # Access counter threshold for migrating the page from cpu to gpu
-sim_prof_enable                        1 # Enable gpgpu-sim profiler
-hardware_prefetch                      1 # Select gpgpu-sim hardware prefetcher
-hwprefetch_oversub                     1 # Select gpgpu-sim hardware prefetcher under over-subscription
-page_fault_latency                 66645 # Average fault latency (in core cycle).
-enable_accurate_simulation                    0 # Enable page fault functional simulation.
-enable_smart_runtime                    0 # Enable access pattern detection, policy engine, and adaptive memory management.
-enable_ptx_file_line_stats                    1 # Turn on PTX source line statistic profiling. (1 = On)
-ptx_line_stats_filename gpgpu_inst_stats.txt # Output file for PTX source line statistics.
-gpgpu_kernel_launch_latency               222150 # Kernel launch latency in cycles. Default: 0
-gpgpu_cdp_enabled                      0 # Turn on CDP
-save_embedded_ptx                      0 # saves ptx files embedded in binary as <n>.ptx
-keep                                   0 # keep intermediate files created by GPGPU-Sim when interfacing with external programs
-gpgpu_ptx_save_converted_ptxplus                    0 # Saved converted ptxplus to a file
-ptx_opcode_latency_int         4,13,4,5,145 # Opcode latencies for integers <ADD,MAX,MUL,MAD,DIV>Default 1,1,19,25,145
-ptx_opcode_latency_fp          4,13,4,5,39 # Opcode latencies for single precision floating points <ADD,MAX,MUL,MAD,DIV>Default 1,1,1,1,30
-ptx_opcode_latency_dp         8,19,8,8,330 # Opcode latencies for double precision floating points <ADD,MAX,MUL,MAD,DIV>Default 8,8,8,8,335
-ptx_opcode_initiation_int            1,2,2,2,8 # Opcode initiation intervals for integers <ADD,MAX,MUL,MAD,DIV>Default 1,1,4,4,32
-ptx_opcode_initiation_fp            1,2,1,1,4 # Opcode initiation intervals for single precision floating points <ADD,MAX,MUL,MAD,DIV>Default 1,1,1,1,5
-ptx_opcode_initiation_dp          1,2,1,1,130 # Opcode initiation intervals for double precision floating points <ADD,MAX,MUL,MAD,DIV>Default 8,8,8,8,130
-cdp_latency         7200,8000,100,12000,1600 # CDP API latency <cudaStreamCreateWithFlags, cudaGetParameterBufferV2_init_perWarp, cudaGetParameterBufferV2_perKernel, cudaLaunchDeviceV2_init_perWarp, cudaLaunchDevicV2_perKernel>Default 7200,8000,100,12000,1600
DRAM Timing Options:
nbk                                    16 # number of banks
CCD                                     2 # column to column delay
RRD                                     6 # minimal delay between activation of rows in different banks
RCD                                    12 # row to column delay
RAS                                    28 # time needed to activate row
RP                                     12 # time needed to precharge (deactivate) row
RC                                     40 # row cycle time
CDLR                                    5 # switching from write to read (changes tWTR)
WR                                     12 # last data-in to row precharge
CL                                     12 # CAS latency
WL                                      4 # Write latency
nbkgrp                                  1 # number of bank groups
CCDL                                    0 # column to column delay between accesses to different bank groups
RTPL                                    0 # read to precharge delay between accesses to different bank groups
Total number of memory sub partition = 22
addr_dec_mask[CHIP]  = 0000000000000000 	high:64 low:0
addr_dec_mask[BK]    = 0000000000007080 	high:15 low:7
addr_dec_mask[ROW]   = 000000000fff8000 	high:28 low:15
addr_dec_mask[COL]   = 0000000000000f7f 	high:12 low:0
addr_dec_mask[BURST] = 000000000000001f 	high:5 low:0
sub_partition_id_mask = 0000000000000080
GPGPU-Sim uArch: clock freqs: 1481000000.000000:2962000000.000000:1481000000.000000:2750000000.000000
GPGPU-Sim uArch: clock periods: 0.00000000067521944632:0.00000000033760972316:0.00000000067521944632:0.00000000036363636364
*** Initializing Memory Statistics ***
GPGPU-Sim uArch: interconnect node map (shaderID+MemID to icntID)
GPGPU-Sim uArch: Memory nodes ID start from index: 28
GPGPU-Sim uArch:    0   1   2   3   4   5   6
GPGPU-Sim uArch:    7   8   9  10  11  12  13
GPGPU-Sim uArch:   14  15  16  17  18  19  20
GPGPU-Sim uArch:   21  22  23  24  25  26  27
GPGPU-Sim uArch:   28  29  30  31  32  33  34
GPGPU-Sim uArch:   35  36  37  38  39  40  41
GPGPU-Sim uArch:   42  43  44  45  46  47  48
GPGPU-Sim uArch:   49
GPGPU-Sim uArch: interconnect node reverse map (icntID to shaderID+MemID)
GPGPU-Sim uArch: Memory nodes start from ID: 28
GPGPU-Sim uArch:    0   1   2   3   4   5   6
GPGPU-Sim uArch:    7   8   9  10  11  12  13
GPGPU-Sim uArch:   14  15  16  17  18  19  20
GPGPU-Sim uArch:   21  22  23  24  25  26  27
GPGPU-Sim uArch:   28  29  30  31  32  33  34
GPGPU-Sim uArch:   35  36  37  38  39  40  41
GPGPU-Sim uArch:   42  43  44  45  46  47  48
GPGPU-Sim uArch:   49
2a0d493ff163da5f8f19a4bd0117c769  /root/gpgpu-sim_UVMSmart/benchmarks/Managed/ATAX/atax
GPGPU-Sim uArch: performance model initialization complete.
GPGPU-Sim PTX: __cudaRegisterFatBinary, fat_cubin_handle = 1, filename=default
self exe links to: /root/gpgpu-sim_UVMSmart/benchmarks/Managed/ATAX/atax
Running md5sum using "md5sum /root/gpgpu-sim_UVMSmart/benchmarks/Managed/ATAX/atax "
Parsing file _cuobjdump_complete_output_Zibzms
######### cuobjdump parser ########
## Adding new section ELF
Adding arch: sm_20
Adding identifier: default
## Adding new section ELF
Adding arch: sm_20
Adding identifier: default
## Adding new section PTX
Adding ptx filename: _cuobjdump_1.ptx
Adding arch: sm_20
Adding identifier: default
Done parsing!!!
GPGPU-Sim PTX: __cudaRegisterFunction _Z12atax_kernel2PfS_S_ : hostFun 0x0x4010a2, fat_cubin_handle = 1
GPGPU-Sim PTX: instruction assembly for function '_Z12atax_kernel1PfS_S_'...   done.
GPGPU-Sim PTX: finding reconvergence points for '_Z12atax_kernel1PfS_S_'...
GPGPU-Sim PTX: Finding dominators for '_Z12atax_kernel1PfS_S_'...
GPGPU-Sim PTX: Finding immediate dominators for '_Z12atax_kernel1PfS_S_'...
GPGPU-Sim PTX: Finding postdominators for '_Z12atax_kernel1PfS_S_'...
GPGPU-Sim PTX: Finding immediate postdominators for '_Z12atax_kernel1PfS_S_'...
GPGPU-Sim PTX: pre-decoding instructions for '_Z12atax_kernel1PfS_S_'...
GPGPU-Sim PTX: reconvergence points for _Z12atax_kernel1PfS_S_...
GPGPU-Sim PTX:  1 (potential) branch divergence @  PC=0x040 (_1.ptx:34) @%p1 bra BB0_3;
GPGPU-Sim PTX:    immediate post dominator      @  PC=0x270 (_1.ptx:109) ret;
GPGPU-Sim PTX:  2 (potential) branch divergence @  PC=0x268 (_1.ptx:106) @%p2 bra BB0_2;
GPGPU-Sim PTX:    immediate post dominator      @  PC=0x270 (_1.ptx:109) ret;
GPGPU-Sim PTX: ... end of reconvergence points for _Z12atax_kernel1PfS_S_
GPGPU-Sim PTX: ... done pre-decoding instructions for '_Z12atax_kernel1PfS_S_'.
GPGPU-Sim PTX: instruction assembly for function '_Z12atax_kernel2PfS_S_'...   done.
GPGPU-Sim PTX: finding reconvergence points for '_Z12atax_kernel2PfS_S_'...
GPGPU-Sim PTX: Finding dominators for '_Z12atax_kernel2PfS_S_'...
GPGPU-Sim PTX: Finding immediate dominators for '_Z12atax_kernel2PfS_S_'...
GPGPU-Sim PTX: Finding postdominators for '_Z12atax_kernel2PfS_S_'...
GPGPU-Sim PTX: Finding immediate postdominators for '_Z12atax_kernel2PfS_S_'...
GPGPU-Sim PTX: pre-decoding instructions for '_Z12atax_kernel2PfS_S_'...
GPGPU-Sim PTX: reconvergence points for _Z12atax_kernel2PfS_S_...
GPGPU-Sim PTX:  1 (potential) branch divergence @  PC=0x2b8 (_1.ptx:133) @%p1 bra BB1_3;
GPGPU-Sim PTX:    immediate post dominator      @  PC=0x4b8 (_1.ptx:202) ret;
GPGPU-Sim PTX:  2 (potential) branch divergence @  PC=0x4b0 (_1.ptx:199) @%p2 bra BB1_2;
GPGPU-Sim PTX:    immediate post dominator      @  PC=0x4b8 (_1.ptx:202) ret;
GPGPU-Sim PTX: ... end of reconvergence points for _Z12atax_kernel2PfS_S_
GPGPU-Sim PTX: ... done pre-decoding instructions for '_Z12atax_kernel2PfS_S_'.
GPGPU-Sim PTX: finished parsing EMBEDDED .ptx file _1.ptx
Adding _cuobjdump_1.ptx with cubin handle 1
GPGPU-Sim PTX: extracting embedded .ptx to temporary file "_ptx_OCWMwd"
Running: cat _ptx_OCWMwd | sed 's/.version 1.5/.version 1.4/' | sed 's/, texmode_independent//' | sed 's/\(\.extern \.const\[1\] .b8 \w\+\)\[\]/\1\[1\]/' | sed 's/const\[.\]/const\[0\]/g' > _ptx2_5ZR1GY
GPGPU-Sim PTX: generating ptxinfo using "$CUDA_INSTALL_PATH/bin/ptxas --gpu-name=sm_20 -v _ptx2_5ZR1GY --output-file  /dev/null 2> _ptx_OCWMwdinfo"
GPGPU-Sim PTX: Kernel '_Z12atax_kernel2PfS_S_' : regs=14, lmem=0, smem=0, cmem=56
GPGPU-Sim PTX: Kernel '_Z12atax_kernel1PfS_S_' : regs=19, lmem=0, smem=0, cmem=56
GPGPU-Sim PTX: removing ptxinfo using "rm -f _ptx_OCWMwd _ptx2_5ZR1GY _ptx_OCWMwdinfo"
GPGPU-Sim PTX: loading globals with explicit initializers... 
GPGPU-Sim PTX: finished loading globals (0 bytes total).
GPGPU-Sim PTX: loading constants with explicit initializers...  done.
GPGPU-Sim PTX: __cudaRegisterFunction _Z12atax_kernel1PfS_S_ : hostFun 0x0x400fe3, fat_cubin_handle = 1

GPGPU-Sim PTX: cudaLaunch for 0x0x400fe3 (mode=performance simulation) on stream 0
GPGPU-Sim PTX: pushing kernel '_Z12atax_kernel1PfS_S_' to stream 0, gridDim= (5,1,1) blockDim = (256,1,1) 
GPGPU-Sim uArch: Shader 1 bind to kernel 1 '_Z12atax_kernel1PfS_S_'
GPGPU-Sim uArch: CTA/core = 8, limited by: threads
GPGPU-Sim uArch: Shader 2 bind to kernel 1 '_Z12atax_kernel1PfS_S_'
GPGPU-Sim uArch: Shader 3 bind to kernel 1 '_Z12atax_kernel1PfS_S_'
GPGPU-Sim uArch: Shader 4 bind to kernel 1 '_Z12atax_kernel1PfS_S_'
GPGPU-Sim uArch: Shader 5 bind to kernel 1 '_Z12atax_kernel1PfS_S_'
Destroy streams for kernel 1: size 0
kernel_name = _Z12atax_kernel1PfS_S_ 
kernel_launch_uid = 1 
gpu_sim_cycle = 13841481
gpu_sim_insn = 6627200
gpu_ipc =       0.4788
gpu_tot_sim_cycle = 14063631
gpu_tot_sim_insn = 6627200
gpu_tot_ipc =       0.4712
gpu_tot_issued_cta = 5
max_total_param_size = 0
gpu_stall_dramfull = 4851
gpu_stall_icnt2sh    = 1387122
partiton_reqs_in_parallel = 304507731
partiton_reqs_in_parallel_total    = 0
partiton_level_parallism =      21.9997
partiton_level_parallism_total  =      21.6521
partiton_reqs_in_parallel_util = 304507731
partiton_reqs_in_parallel_util_total    = 0
gpu_sim_cycle_parition_util = 13841481
gpu_tot_sim_cycle_parition_util    = 0
partiton_level_parallism_util =      21.9997
partiton_level_parallism_util_total  =      21.9997
partiton_replys_in_parallel = 1531268
partiton_replys_in_parallel_total    = 0
L2_BW  =      10.4859 GB/Sec
L2_BW_total  =      10.3202 GB/Sec
gpu_total_sim_rate=2170

========= Core cache stats =========
L1I_cache:
	L1I_total_cache_accesses = 106868
	L1I_total_cache_misses = 139
	L1I_total_cache_miss_rate = 0.0013
	L1I_total_cache_pending_hits = 0
	L1I_total_cache_reservation_fails = 0
L1D_cache:
	L1D_cache_core[0]: Access = 0, Miss = 0, Miss_rate = -nan, Pending_hits = 0, Reservation_fails = 0
	L1D_cache_core[1]: Access = 0, Miss = 0, Miss_rate = -nan, Pending_hits = 0, Reservation_fails = 0
	L1D_cache_core[2]: Access = 0, Miss = 0, Miss_rate = -nan, Pending_hits = 0, Reservation_fails = 0
	L1D_cache_core[3]: Access = 0, Miss = 0, Miss_rate = -nan, Pending_hits = 0, Reservation_fails = 0
	L1D_cache_core[4]: Access = 0, Miss = 0, Miss_rate = -nan, Pending_hits = 0, Reservation_fails = 0
	L1D_cache_core[5]: Access = 0, Miss = 0, Miss_rate = -nan, Pending_hits = 0, Reservation_fails = 0
	L1D_cache_core[6]: Access = 0, Miss = 0, Miss_rate = -nan, Pending_hits = 0, Reservation_fails = 0
	L1D_cache_core[7]: Access = 0, Miss = 0, Miss_rate = -nan, Pending_hits = 0, Reservation_fails = 0
	L1D_cache_core[8]: Access = 0, Miss = 0, Miss_rate = -nan, Pending_hits = 0, Reservation_fails = 0
	L1D_cache_core[9]: Access = 0, Miss = 0, Miss_rate = -nan, Pending_hits = 0, Reservation_fails = 0
	L1D_cache_core[10]: Access = 0, Miss = 0, Miss_rate = -nan, Pending_hits = 0, Reservation_fails = 0
	L1D_cache_core[11]: Access = 0, Miss = 0, Miss_rate = -nan, Pending_hits = 0, Reservation_fails = 0
	L1D_cache_core[12]: Access = 0, Miss = 0, Miss_rate = -nan, Pending_hits = 0, Reservation_fails = 0
	L1D_cache_core[13]: Access = 0, Miss = 0, Miss_rate = -nan, Pending_hits = 0, Reservation_fails = 0
	L1D_cache_core[14]: Access = 0, Miss = 0, Miss_rate = -nan, Pending_hits = 0, Reservation_fails = 0
	L1D_cache_core[15]: Access = 0, Miss = 0, Miss_rate = -nan, Pending_hits = 0, Reservation_fails = 0
	L1D_cache_core[16]: Access = 0, Miss = 0, Miss_rate = -nan, Pending_hits = 0, Reservation_fails = 0
	L1D_cache_core[17]: Access = 0, Miss = 0, Miss_rate = -nan, Pending_hits = 0, Reservation_fails = 0
	L1D_cache_core[18]: Access = 0, Miss = 0, Miss_rate = -nan, Pending_hits = 0, Reservation_fails = 0
	L1D_cache_core[19]: Access = 0, Miss = 0, Miss_rate = -nan, Pending_hits = 0, Reservation_fails = 0
	L1D_cache_core[20]: Access = 0, Miss = 0, Miss_rate = -nan, Pending_hits = 0, Reservation_fails = 0
	L1D_cache_core[21]: Access = 0, Miss = 0, Miss_rate = -nan, Pending_hits = 0, Reservation_fails = 0
	L1D_cache_core[22]: Access = 0, Miss = 0, Miss_rate = -nan, Pending_hits = 0, Reservation_fails = 0
	L1D_cache_core[23]: Access = 0, Miss = 0, Miss_rate = -nan, Pending_hits = 0, Reservation_fails = 0
	L1D_cache_core[24]: Access = 0, Miss = 0, Miss_rate = -nan, Pending_hits = 0, Reservation_fails = 0
	L1D_cache_core[25]: Access = 0, Miss = 0, Miss_rate = -nan, Pending_hits = 0, Reservation_fails = 0
	L1D_cache_core[26]: Access = 0, Miss = 0, Miss_rate = -nan, Pending_hits = 0, Reservation_fails = 0
	L1D_cache_core[27]: Access = 0, Miss = 0, Miss_rate = -nan, Pending_hits = 0, Reservation_fails = 0
	L1D_total_cache_accesses = 0
	L1D_total_cache_misses = 0
	L1D_total_cache_pending_hits = 0
	L1D_total_cache_reservation_fails = 0
	L1D_cache_data_port_util = 0.000
	L1D_cache_fill_port_util = 0.000
L1C_cache:
	L1C_total_cache_accesses = 120
	L1C_total_cache_misses = 120
	L1C_total_cache_miss_rate = 1.0000
	L1C_total_cache_pending_hits = 0
	L1C_total_cache_reservation_fails = 0
L1T_cache:
	L1T_total_cache_accesses = 0
	L1T_total_cache_misses = 0
	L1T_total_cache_pending_hits = 0
	L1T_total_cache_reservation_fails = 0

Total_core_cache_stats:
	Total_core_cache_stats_breakdown[GLOBAL_ACC_R][HIT] = 0
	Total_core_cache_stats_breakdown[GLOBAL_ACC_R][HIT_RESERVED] = 0
	Total_core_cache_stats_breakdown[GLOBAL_ACC_R][MISS] = 0
	Total_core_cache_stats_breakdown[GLOBAL_ACC_R][RESERVATION_FAIL] = 0
	Total_core_cache_stats_breakdown[LOCAL_ACC_R][HIT] = 0
	Total_core_cache_stats_breakdown[LOCAL_ACC_R][HIT_RESERVED] = 0
	Total_core_cache_stats_breakdown[LOCAL_ACC_R][MISS] = 0
	Total_core_cache_stats_breakdown[LOCAL_ACC_R][RESERVATION_FAIL] = 0
	Total_core_cache_stats_breakdown[CONST_ACC_R][HIT] = 0
	Total_core_cache_stats_breakdown[CONST_ACC_R][HIT_RESERVED] = 0
	Total_core_cache_stats_breakdown[CONST_ACC_R][MISS] = 120
	Total_core_cache_stats_breakdown[CONST_ACC_R][RESERVATION_FAIL] = 0
	Total_core_cache_stats_breakdown[TEXTURE_ACC_R][HIT] = 0
	Total_core_cache_stats_breakdown[TEXTURE_ACC_R][HIT_RESERVED] = 0
	Total_core_cache_stats_breakdown[TEXTURE_ACC_R][MISS] = 0
	Total_core_cache_stats_breakdown[TEXTURE_ACC_R][RESERVATION_FAIL] = 0
	Total_core_cache_stats_breakdown[GLOBAL_ACC_W][HIT] = 0
	Total_core_cache_stats_breakdown[GLOBAL_ACC_W][HIT_RESERVED] = 0
	Total_core_cache_stats_breakdown[GLOBAL_ACC_W][MISS] = 0
	Total_core_cache_stats_breakdown[GLOBAL_ACC_W][RESERVATION_FAIL] = 0
	Total_core_cache_stats_breakdown[LOCAL_ACC_W][HIT] = 0
	Total_core_cache_stats_breakdown[LOCAL_ACC_W][HIT_RESERVED] = 0
	Total_core_cache_stats_breakdown[LOCAL_ACC_W][MISS] = 0
	Total_core_cache_stats_breakdown[LOCAL_ACC_W][RESERVATION_FAIL] = 0
	Total_core_cache_stats_breakdown[L1_WRBK_ACC][HIT] = 0
	Total_core_cache_stats_breakdown[L1_WRBK_ACC][HIT_RESERVED] = 0
	Total_core_cache_stats_breakdown[L1_WRBK_ACC][MISS] = 0
	Total_core_cache_stats_breakdown[L1_WRBK_ACC][RESERVATION_FAIL] = 0
	Total_core_cache_stats_breakdown[L2_WRBK_ACC][HIT] = 0
	Total_core_cache_stats_breakdown[L2_WRBK_ACC][HIT_RESERVED] = 0
	Total_core_cache_stats_breakdown[L2_WRBK_ACC][MISS] = 0
	Total_core_cache_stats_breakdown[L2_WRBK_ACC][RESERVATION_FAIL] = 0
	Total_core_cache_stats_breakdown[INST_ACC_R][HIT] = 106729
	Total_core_cache_stats_breakdown[INST_ACC_R][HIT_RESERVED] = 0
	Total_core_cache_stats_breakdown[INST_ACC_R][MISS] = 139
	Total_core_cache_stats_breakdown[INST_ACC_R][RESERVATION_FAIL] = 0
	Total_core_cache_stats_breakdown[L1_WR_ALLOC_R][HIT] = 0
	Total_core_cache_stats_breakdown[L1_WR_ALLOC_R][HIT_RESERVED] = 0
	Total_core_cache_stats_breakdown[L1_WR_ALLOC_R][MISS] = 0
	Total_core_cache_stats_breakdown[L1_WR_ALLOC_R][RESERVATION_FAIL] = 0
	Total_core_cache_stats_breakdown[L2_WR_ALLOC_R][HIT] = 0
	Total_core_cache_stats_breakdown[L2_WR_ALLOC_R][HIT_RESERVED] = 0
	Total_core_cache_stats_breakdown[L2_WR_ALLOC_R][MISS] = 0
	Total_core_cache_stats_breakdown[L2_WR_ALLOC_R][RESERVATION_FAIL] = 0
	Total_core_cache_stats_breakdown[CONST_ACC_R][TOTAL_ACCESS] = 120
	Total_core_cache_stats_breakdown[INST_ACC_R][TOTAL_ACCESS] = 106868
Shader 0 warp_id issue ditsribution:
warp_id:

distro:

gpgpu_n_tot_thrd_icount = 6717824
gpgpu_n_tot_w_icount = 209932
gpgpu_n_stall_shd_mem = 1408273
gpgpu_n_mem_read_local = 0
gpgpu_n_mem_write_local = 0
gpgpu_n_mem_read_global = 1485638
gpgpu_n_mem_write_global = 45600
gpgpu_n_mem_texture = 0
gpgpu_n_mem_const = 5
gpgpu_n_load_insn  = 2881200
gpgpu_n_store_insn = 1440000
gpgpu_n_shmem_insn = 0
gpgpu_n_tex_insn = 0
gpgpu_n_const_mem_insn = 0
gpgpu_n_param_mem_insn = 3840
gpgpu_n_shmem_bkconflict = 0
gpgpu_n_cache_bkconflict = 0
gpgpu_n_intrawarp_mshr_merge = 0
gpgpu_n_cmem_portconflict = 0
gpgpu_stall_shd_mem[c_mem][bk_conf] = 0
gpgpu_stall_shd_mem[c_mem][mshr_rc] = 0
gpgpu_stall_shd_mem[c_mem][icnt_rc] = 0
gpgpu_stall_shd_mem[c_mem][data_port_stall] = 0
gpgpu_stall_shd_mem[t_mem][mshr_rc] = 0
gpgpu_stall_shd_mem[t_mem][icnt_rc] = 0
gpgpu_stall_shd_mem[t_mem][data_port_stall] = 0
gpgpu_stall_shd_mem[s_mem][bk_conf] = 0
gpgpu_stall_shd_mem[gl_mem][bk_conf] = 0
gpgpu_stall_shd_mem[gl_mem][coal_stall] = 1396170
gpgpu_stall_shd_mem[gl_mem][data_port_stall] = 0
gpgpu_stall_shd_mem[g_mem_ld][mshr_rc] = 0
gpgpu_stall_shd_mem[g_mem_ld][icnt_rc] = 12103
gpgpu_stall_shd_mem[g_mem_ld][wb_icnt_rc] = 0
gpgpu_stall_shd_mem[g_mem_ld][wb_rsrv_fail] = 0
gpgpu_stall_shd_mem[g_mem_st][mshr_rc] = 0
gpgpu_stall_shd_mem[g_mem_st][icnt_rc] = 0
gpgpu_stall_shd_mem[g_mem_st][wb_icnt_rc] = 0
gpgpu_stall_shd_mem[g_mem_st][wb_rsrv_fail] = 0
gpgpu_stall_shd_mem[l_mem_ld][mshr_rc] = 0
gpgpu_stall_shd_mem[l_mem_ld][icnt_rc] = 0
gpgpu_stall_shd_mem[l_mem_ld][wb_icnt_rc] = 0
gpgpu_stall_shd_mem[l_mem_ld][wb_rsrv_fail] = 0
gpgpu_stall_shd_mem[l_mem_st][mshr_rc] = 0
gpgpu_stall_shd_mem[l_mem_st][icnt_rc] = 0
gpgpu_stall_shd_mem[l_mem_ld][wb_icnt_rc] = 0
gpgpu_stall_shd_mem[l_mem_ld][wb_rsrv_fail] = 0
gpu_reg_bank_conflict_stalls = 0
Warp Occupancy Distribution:
Stall:9967	W0_Idle:30863245	W0_Scoreboard:106389868	W1:0	W2:0	W3:0	W4:0	W5:0	W6:0	W7:0	W8:0	W9:0	W10:0	W11:0	W12:0	W13:0	W14:0	W15:0	W16:5514	W17:0	W18:0	W19:0	W20:0	W21:0	W22:0	W23:0	W24:0	W25:0	W26:0	W27:0	W28:0	W29:0	W30:0	W31:0	W32:204418
traffic_breakdown_coretomem[CONST_ACC_R] = 40 {8:5,}
traffic_breakdown_coretomem[GLOBAL_ACC_R] = 11885104 {8:1485638,}
traffic_breakdown_coretomem[GLOBAL_ACC_W] = 6124800 {72:1200,136:44400,}
traffic_breakdown_coretomem[INST_ACC_R] = 200 {8:25,}
traffic_breakdown_memtocore[CONST_ACC_R] = 360 {72:5,}
traffic_breakdown_memtocore[GLOBAL_ACC_R] = 59429104 {40:1485600,72:1,136:37,}
traffic_breakdown_memtocore[GLOBAL_ACC_W] = 364800 {8:45600,}
traffic_breakdown_memtocore[INST_ACC_R] = 3400 {136:25,}
maxmrqlatency = 16 
maxdqlatency = 0 
maxmflatency = 850164 
averagemflatency = 4083 
max_icnt2mem_latency = 850001 
max_icnt2sh_latency = 14063630 
mrq_lat_table:45571 	12 	24 	28 	2 	0 	0 	0 	0 	0 	0 	0 	0 	0 	0 	0 	0 	0 	0 	0 	0 	0 	0 	0 	0 	0 	0 	0 	0 	0 	0 	0 	
dq_lat_table:0 	0 	0 	0 	0 	0 	0 	0 	0 	0 	0 	0 	0 	0 	0 	0 	0 	0 	0 	0 	0 	0 	0 	0 	0 	0 	0 	0 	0 	0 	0 	0 	
mf_lat_table:0 	0 	0 	0 	0 	0 	0 	1410355 	97741 	239 	144 	580 	1193 	1923 	2154 	490 	1424 	3782 	8270 	2948 	0 	0 	0 	0 	0 	0 	0 	0 	0 	0 	0 	0 	
icnt2mem_lat_table:0 	0 	1298180 	191562 	17713 	31 	673 	167 	17 	28 	167 	588 	1212 	1885 	2131 	491 	1436 	3772 	8267 	2948 	0 	0 	0 	0 	
icnt2sh_lat_table:0 	0 	375952 	290297 	399347 	216180 	159422 	44395 	50 	0 	0 	0 	0 	0 	0 	0 	0 	0 	0 	0 	8708 	8751 	10747 	17394 	
mf_lat_pw_table:0 	0 	0 	0 	0 	0 	0 	5257 	27 	59 	71 	31 	48 	50 	47 	87 	150 	166 	399 	75 	0 	0 	0 	0 	0 	0 	0 	0 	0 	0 	0 	0 	
maximum concurrent accesses to same row:
dram[0]:         7         8        10         9         7         7        11        11        11        11        11        11        11        11         7         9 
dram[1]:         8         8         9         9         8         8        10        10        11        11        10        11        11        11        10         8 
dram[2]:         8         8         9         9         7         8         9        10        11        10        11        12        10        12         9         8 
dram[3]:         8         8         9         9         7         8        10        10        10        11        11        12        11        11         9        10 
dram[4]:         8         7         9        10         8         8        11        10        11        11        11        12        11        11        10         9 
dram[5]:         8         9         9         8         8         8         9        10        11        12        12        10        11        11        10         9 
dram[6]:         8         7         9         9         8         7        10         9        10        11        11        11        10        10         9        10 
dram[7]:         8         8         8         8         8         8        10        10        10        11        12        11        10        11         9         9 
dram[8]:         8         8         9         8         8         8        10        10        11        11        11        11        10        11         9        11 
dram[9]:         8         8         9         8         8         7        10         9        11        11        11        12        10        11         9        10 
dram[10]:         8         8         7         8         8         8        10        11        11        12        11        10        11        10        11         9 
maximum service time to same row:
dram[0]:    734178    931502    992707    684556    913828    936784   1489562   1489649   1524222   1534526   1496688   1496306    975524   1467336    651528    966283 
dram[1]:    731070   1300493    661479    657473    712723    725229   1489782   1489577   1517487   1138495   1496369   1506352    958229   1048511   1005510    661880 
dram[2]:    735922   1314559    668072    936786   1388544    913728   1403342   1524501   1517521   1517424   1506327   1478887    968856    968604    995483    657432 
dram[3]:    659036   1298279    651028    947177    938331    885844   1534226   1516906   1507051   1534990    968772   1496388   1478888    686937    966285   1006780 
dram[4]:    735379    795740    937030    992421    930030    722568   1534509   1533976   1517521   1517425   1496263   1506463    958420    657431   1006952    955980 
dram[5]:    654118   1298278    661560    679901    722205   1001390   1516950   1534992   1534526   1517487   1506247   1076807   1477617    968772    966285    660532 
dram[6]:    735378    733498    653106    689048    736143   1000718   1517521   1517426   1517345   1534323    968754    968605   1031874    968754    670639    995483 
dram[7]:    932054    659036    947133    651028    983620    973254    759718   1489689   1534350   1524500   1478768   1479009    968605    975572    657433    966285 
dram[8]:   1298280    839444    946853    689047    834587   1388544   1489508   1489818   1534991   1517522   1479041   1059906   1042659    968754    735572   1012803 
dram[9]:    795740    669101    992590    651026   1409508   1396202   1507437   1507166   1517425   1517177   1478887   1479009    968604   1478888    650770    966285 
dram[10]:   1298279    735378    657473    936737    938683    913261   1524888   1490002   1517487   1524887   1032908    968753    968772   1042990   1006782    671564 
average row accesses per activate:
dram[0]:  1.198157  1.257282  1.282178  1.254808  1.244019  1.246377  1.321429  1.323077  1.345361  1.343590  1.368984  1.381720  1.319797  1.316326  1.198157  1.203704 
dram[1]:  1.220657  1.246377  1.256039  1.250000  1.274510  1.244019  1.329897  1.368421  1.326531  1.336735  1.357895  1.391304  1.301508  1.287129  1.215962  1.182648 
dram[2]:  1.232227  1.221698  1.245192  1.236967  1.251208  1.259804  1.347150  1.321429  1.364583  1.366492  1.396739  1.391304  1.287129  1.274510  1.199074  1.182648 
dram[3]:  1.227488  1.251208  1.259615  1.278049  1.245192  1.244019  1.343750  1.328205  1.316583  1.373684  1.389189  1.368984  1.282178  1.250000  1.187215  1.177273 
dram[4]:  1.239234  1.220657  1.285714  1.300000  1.232227  1.227488  1.335052  1.319797  1.345361  1.375661  1.367021  1.409836  1.264706  1.239234  1.170404  1.186364 
dram[5]:  1.209302  1.210280  1.279412  1.278049  1.263415  1.269608  1.336788  1.295000  1.388298  1.361257  1.449438  1.365079  1.275862  1.262136  1.198157  1.188073 
dram[6]:  1.216981  1.204651  1.271845  1.280788  1.263415  1.245192  1.319797  1.354167  1.345361  1.338462  1.411111  1.368984  1.244019  1.268293  1.181818  1.181818 
dram[7]:  1.228571  1.220657  1.259615  1.285714  1.234450  1.238095  1.336788  1.331606  1.345361  1.354167  1.393443  1.412088  1.283582  1.321429  1.171171  1.188073 
dram[8]:  1.233333  1.233333  1.298507  1.238095  1.238095  1.232227  1.354167  1.340206  1.356021  1.354167  1.406593  1.376344  1.295000  1.308081  1.198157  1.193548 
dram[9]:  1.214953  1.214953  1.242857  1.241706  1.234450  1.251208  1.347150  1.331606  1.380952  1.357513  1.381720  1.414365  1.306533  1.335052  1.182648  1.199074 
dram[10]:  1.216981  1.228571  1.241706  1.241706  1.250000  1.232227  1.314721  1.343750  1.341969  1.359375  1.326425  1.356383  1.326531  1.263415  1.210280  1.198157 
average row locality = 45637/35590 = 1.282298
number of total memory accesses made:
dram[0]:         0         0         0         0         0         0         0         0         0         0         0         0         0         0         0         0 
dram[1]:         0         0         0         0         0         0         0         0         0         0         0         0         0         0         0         0 
dram[2]:         0         0         0         0         0         0         0         0         0         0         0         0         0         0         0         0 
dram[3]:         0         0         0         0         0         0         0         0         0         0         0         0         0         0         0         0 
dram[4]:         0         0         0         0         0         0         0         0         0         0         0         0         0         0         0         0 
dram[5]:         0         0         0         0         0         0         0         0         0         0         0         0         0         0         0         0 
dram[6]:         0         0         0         0         0         0         0         0         0         0         0         0         0         0         0         0 
dram[7]:         0         0         0         0         0         0         0         0         0         0         0         0         0         0         0         0 
dram[8]:         0         0         0         0         0         0         0         0         0         0         0         0         0         0         0         0 
dram[9]:         0         0         0         0         0         0         0         0         0         0         0         0         0         0         0         0 
dram[10]:         0         0         0         0         0         0         0         0         0         0         0         0         0         0         0         0 
total accesses: 0
min_bank_accesses = 0!
min_chip_accesses = 0!
number of total read accesses:
dram[0]:       260       259       259       261       260       258       259       258       261       262       256       257       260       258       260       260 
dram[1]:       260       258       260       260       260       260       258       260       260       261       258       256       259       260       259       259 
dram[2]:       260       259       259       261       259       257       260       259       261       261       257       256       260       260       259       259 
dram[3]:       259       259       262       262       259       260       258       259       261       261       257       256       259       260       260       259 
dram[4]:       259       260       261       260       260       259       259       260       261       260       257       258       258       259       261       261 
dram[5]:       260       259       261       262       259       259       258       259       261       259       258       258       259       260       260       259 
dram[6]:       258       259       262       260       259       259       260       260       261       261       254       256       260       260       260       260 
dram[7]:       258       260       262       261       258       260       258       257       261       260       255       257       258       259       260       259 
dram[8]:       259       259       261       260       260       260       260       260       259       260       256       256       259       259       260       259 
dram[9]:       260       260       261       262       258       259       260       257       260       262       257       256       260       259       259       259 
dram[10]:       258       258       262       262       260       260       259       258       259       261       256       255       260       259       259       260 
total reads: 45632
bank skew: 262/254 = 1.03
chip skew: 4153/4143 = 1.00
number of total write accesses:
dram[0]:         0         0         0         0         0         0         0         0         0         0         0         0         0         0         0         0 
dram[1]:         0         0         0         0         0         0         0         0         0         1         0         0         0         0         0         0 
dram[2]:         0         0         0         0         0         0         0         0         1         0         0         0         0         0         0         0 
dram[3]:         0         0         0         0         0         0         0         0         1         0         0         0         0         0         0         0 
dram[4]:         0         0         0         0         0         0         0         0         0         0         0         0         0         0         0         0 
dram[5]:         0         0         0         0         0         0         0         0         0         1         0         0         0         0         0         0 
dram[6]:         0         0         0         0         0         0         0         0         0         0         0         0         0         0         0         0 
dram[7]:         0         0         0         0         0         0         0         0         0         0         0         0         0         0         0         0 
dram[8]:         0         0         0         0         0         0         0         0         0         0         0         0         0         0         0         0 
dram[9]:         0         0         0         0         0         0         0         0         1         0         0         0         0         0         0         0 
dram[10]:         0         0         0         0         0         0         0         0         0         0         0         0         0         0         0         0 
total reads: 5
min_bank_accesses = 0!
min_chip_accesses = 0!
average mf latency per bank:
dram[0]:     146084    113138    134772    157580    130697    142246    103772    111828    152720    155336    119192    123129    156137    114029    124793    173140
dram[1]:     159004    135229    111997    151401    130465    125220    129743    128939    144816    177912    130447    100807    122821    177858    121715    129844
dram[2]:     121491    150923    149754    144997    109258    145800    107876     87200    162959    155309    123540    135911    102549    127856    157877    138955
dram[3]:     138633    112208    218532    150020    103861    156905    142442     82680    115761    181961    128990    117032    150816    136929    129202    156746
dram[4]:     130311    169431    165948    145093    122830    118762    137821    109128    130314    176742    149701    111531    101061    169819    155253    101010
dram[5]:     112856    125185    167845    157431    135032    132277    115051    129091    163361    131404    116584    132706    133196    104946    160708    151092
dram[6]:     155222    126092    196855    160098    137524     99504    128644    133471    126870    160233    117177    105523    158082    118403    117086    160605
dram[7]:     145197    167554    138673    190284    150896     95622    101466    141809    132813    114202    145153    133693    124458    142458    157271    101113
dram[8]:     120599    116613    171566    161673    154233    120341    101546    128515    157359    126135    115334    133122    154544    117916    126551    166312
dram[9]:     175797    152103    183873    184702    122593     90876    120092    151587    143718    171270    126083    101597    156420    140093    114805    126652
dram[10]:     125796    141432    192510    152591    141828    123445     97248    135061    176578    130689    135090    152055     94598    158132    161053    120850
maximum mf latency per bank:
dram[0]:     850013    795210    850088    850079    786485    850080    666171    786468    786469    850142    850133    802816    802830    786525    786480    802822
dram[1]:     802709    850013    786495    780087    850088    786504    850101    850080    786509    786507    666118    786480    802830    786514    786480    802822
dram[2]:     802688    850084    850098    780085    779886    850090    786468    786468    779994    850150    850142    779994    716588    802832    786525    795215
dram[3]:     758687    786480    850098    748092    748093    850090    850110    735434    786508    779859    850157    786510    710114    802832    802823    710105
dram[4]:     850083    850016    786472    780077    748099    850100    850081    779885    850150    786468    802811    850142    786511    802812    758681    795212
dram[5]:     795212    802698    850081    786503    779852    850100    850091    779844    850150    786473    802820    786516    786535    802812    802832    710115
dram[6]:     850014    802698    786482    850080    786467    786502    850091    786475    850159    779993    786472    850150    786518    716589    802832    786536
dram[7]:     850088    780079    780091    850080    850100    748095    786469    850091    850159    786514    802814    850150    802812    802820    795219    802707
dram[8]:     850014    802705    780099    850088    850100    780091    735439    786472    779860    850133    786511    802812    682402    786516    802812    758680
dram[9]:     850017    795216    780080    850088    850080    779861    779872    850101    850142    786508    779994    850156    802820    710104    795213    802812
dram[10]:     802704    850080    748093    786493    850080    748099    779852    850100    786468    850164    786509    724470    802820    786525    710127    802812
Memory Partition 0: 
Cache L2_bank_000:
MSHR contents

Cache L2_bank_001:
MSHR contents

In Dram Latency Queue (total = 0): 
DRAM[0]: 16 bks, busW=4 BL=8 CL=12, tRRD=2 tCCD=6, tRCD=12 tRAS=28 tRP=12 tRC=40
n_cmd=25701601 n_nop=25678567 n_act=3229 n_pre=3213 n_req=4148 n_rd=16592 n_write=0 bw_util=0.001291
n_activity=146397 dram_eff=0.2267
bk0: 1040a 25694282i bk1: 1036a 25694543i bk2: 1036a 25694693i bk3: 1044a 25694480i bk4: 1040a 25694505i bk5: 1032a 25694541i bk6: 1036a 25694844i bk7: 1032a 25694851i bk8: 1044a 25694901i bk9: 1048a 25694820i bk10: 1024a 25695135i bk11: 1028a 25695186i bk12: 1040a 25694922i bk13: 1032a 25694906i bk14: 1040a 25694377i bk15: 1040a 25694310i 
dram_util_bins: 0 0 0 0 0 0 0 0 0 0
dram_eff_bins: 0 0 0 0 0 0 0 0 0 0
mrqq: max=2 avg=4.59115e-06
Memory Partition 1: 
Cache L2_bank_002:
MSHR contents

Cache L2_bank_003:
MSHR contents

In Dram Latency Queue (total = 0): 
DRAM[1]: 16 bks, busW=4 BL=8 CL=12, tRRD=2 tCCD=6, tRCD=12 tRAS=28 tRP=12 tRC=40
n_cmd=25701601 n_nop=25678559 n_act=3231 n_pre=3215 n_req=4149 n_rd=16592 n_write=4 bw_util=0.001291
n_activity=146736 dram_eff=0.2262
bk0: 1040a 25694401i bk1: 1032a 25694521i bk2: 1040a 25694541i bk3: 1040a 25694469i bk4: 1040a 25694631i bk5: 1040a 25694484i bk6: 1032a 25694933i bk7: 1040a 25694969i bk8: 1040a 25694841i bk9: 1044a 25694861i bk10: 1032a 25695102i bk11: 1024a 25695233i bk12: 1036a 25694904i bk13: 1040a 25694762i bk14: 1036a 25694458i bk15: 1036a 25694246i 
dram_util_bins: 0 0 0 0 0 0 0 0 0 0
dram_eff_bins: 0 0 0 0 0 0 0 0 0 0
mrqq: max=2 avg=3.11265e-06
Memory Partition 2: 
Cache L2_bank_004:
MSHR contents

Cache L2_bank_005:
MSHR contents

In Dram Latency Queue (total = 0): 
DRAM[2]: 16 bks, busW=4 BL=8 CL=12, tRRD=2 tCCD=6, tRCD=12 tRAS=28 tRP=12 tRC=40
n_cmd=25701601 n_nop=25678557 n_act=3234 n_pre=3218 n_req=4148 n_rd=16588 n_write=4 bw_util=0.001291
n_activity=146223 dram_eff=0.2269
bk0: 1040a 25694464i bk1: 1036a 25694387i bk2: 1036a 25694526i bk3: 1044a 25694383i bk4: 1036a 25694521i bk5: 1028a 25694623i bk6: 1040a 25694912i bk7: 1036a 25694790i bk8: 1044a 25694949i bk9: 1044a 25694965i bk10: 1028a 25695234i bk11: 1024a 25695254i bk12: 1040a 25694826i bk13: 1040a 25694707i bk14: 1036a 25694435i bk15: 1036a 25694269i 
dram_util_bins: 0 0 0 0 0 0 0 0 0 0
dram_eff_bins: 0 0 0 0 0 0 0 0 0 0
mrqq: max=2 avg=3.3461e-06
Memory Partition 3: 
Cache L2_bank_006:
MSHR contents

Cache L2_bank_007:
MSHR contents

In Dram Latency Queue (total = 0): 
DRAM[3]: 16 bks, busW=4 BL=8 CL=12, tRRD=2 tCCD=6, tRCD=12 tRAS=28 tRP=12 tRC=40
n_cmd=25701601 n_nop=25678519 n_act=3245 n_pre=3229 n_req=4152 n_rd=16604 n_write=4 bw_util=0.001292
n_activity=147285 dram_eff=0.2255
bk0: 1036a 25694437i bk1: 1036a 25694514i bk2: 1048a 25694507i bk3: 1048a 25694531i bk4: 1036a 25694534i bk5: 1040a 25694498i bk6: 1032a 25694992i bk7: 1036a 25694868i bk8: 1044a 25694759i bk9: 1044a 25695000i bk10: 1028a 25695231i bk11: 1024a 25695156i bk12: 1036a 25694812i bk13: 1040a 25694573i bk14: 1040a 25694286i bk15: 1036a 25694199i 
dram_util_bins: 0 0 0 0 0 0 0 0 0 0
dram_eff_bins: 0 0 0 0 0 0 0 0 0 0
mrqq: max=1 avg=4.98023e-06
Memory Partition 4: 
Cache L2_bank_008:
MSHR contents

Cache L2_bank_009:
MSHR contents

In Dram Latency Queue (total = 0): 
DRAM[4]: 16 bks, busW=4 BL=8 CL=12, tRRD=2 tCCD=6, tRCD=12 tRAS=28 tRP=12 tRC=40
n_cmd=25701601 n_nop=25678509 n_act=3248 n_pre=3232 n_req=4153 n_rd=16612 n_write=0 bw_util=0.001293
n_activity=147170 dram_eff=0.2258
bk0: 1036a 25694493i bk1: 1040a 25694357i bk2: 1044a 25694616i bk3: 1040a 25694671i bk4: 1040a 25694446i bk5: 1036a 25694450i bk6: 1036a 25694888i bk7: 1040a 25694745i bk8: 1044a 25694891i bk9: 1040a 25695057i bk10: 1028a 25695172i bk11: 1032a 25695261i bk12: 1032a 25694767i bk13: 1036a 25694582i bk14: 1044a 25694196i bk15: 1044a 25694195i 
dram_util_bins: 0 0 0 0 0 0 0 0 0 0
dram_eff_bins: 0 0 0 0 0 0 0 0 0 0
mrqq: max=1 avg=3.92972e-06
Memory Partition 5: 
Cache L2_bank_010:
MSHR contents

Cache L2_bank_011:
MSHR contents

In Dram Latency Queue (total = 0): 
DRAM[5]: 16 bks, busW=4 BL=8 CL=12, tRRD=2 tCCD=6, tRCD=12 tRAS=28 tRP=12 tRC=40
n_cmd=25701601 n_nop=25678549 n_act=3230 n_pre=3214 n_req=4152 n_rd=16604 n_write=4 bw_util=0.001292
n_activity=147172 dram_eff=0.2257
bk0: 1040a 25694364i bk1: 1036a 25694351i bk2: 1044a 25694602i bk3: 1048a 25694547i bk4: 1036a 25694602i bk5: 1036a 25694625i bk6: 1032a 25694926i bk7: 1036a 25694726i bk8: 1044a 25695026i bk9: 1036a 25694981i bk10: 1032a 25695391i bk11: 1032a 25695090i bk12: 1036a 25694755i bk13: 1040a 25694635i bk14: 1040a 25694365i bk15: 1036a 25694295i 
dram_util_bins: 0 0 0 0 0 0 0 0 0 0
dram_eff_bins: 0 0 0 0 0 0 0 0 0 0
mrqq: max=1 avg=2.06213e-06
Memory Partition 6: 
Cache L2_bank_012:
MSHR contents

Cache L2_bank_013:
MSHR contents

In Dram Latency Queue (total = 0): 
DRAM[6]: 16 bks, busW=4 BL=8 CL=12, tRRD=2 tCCD=6, tRCD=12 tRAS=28 tRP=12 tRC=40
n_cmd=25701601 n_nop=25678525 n_act=3248 n_pre=3232 n_req=4149 n_rd=16596 n_write=0 bw_util=0.001291
n_activity=146502 dram_eff=0.2266
bk0: 1032a 25694416i bk1: 1036a 25694252i bk2: 1048a 25694542i bk3: 1040a 25694575i bk4: 1036a 25694608i bk5: 1036a 25694526i bk6: 1040a 25694828i bk7: 1040a 25694874i bk8: 1044a 25694914i bk9: 1044a 25694877i bk10: 1016a 25695373i bk11: 1024a 25695172i bk12: 1040a 25694655i bk13: 1040a 25694671i bk14: 1040a 25694316i bk15: 1040a 25694216i 
dram_util_bins: 0 0 0 0 0 0 0 0 0 0
dram_eff_bins: 0 0 0 0 0 0 0 0 0 0
mrqq: max=1 avg=3.30719e-06
Memory Partition 7: 
Cache L2_bank_014:
MSHR contents

Cache L2_bank_015:
MSHR contents

In Dram Latency Queue (total = 0): 
DRAM[7]: 16 bks, busW=4 BL=8 CL=12, tRRD=2 tCCD=6, tRCD=12 tRAS=28 tRP=12 tRC=40
n_cmd=25701601 n_nop=25678591 n_act=3227 n_pre=3211 n_req=4143 n_rd=16572 n_write=0 bw_util=0.00129
n_activity=146789 dram_eff=0.2258
bk0: 1032a 25694512i bk1: 1040a 25694364i bk2: 1048a 25694518i bk3: 1044a 25694592i bk4: 1032a 25694518i bk5: 1040a 25694466i bk6: 1032a 25694931i bk7: 1028a 25694889i bk8: 1044a 25694865i bk9: 1040a 25694946i bk10: 1020a 25695299i bk11: 1028a 25695269i bk12: 1032a 25694836i bk13: 1036a 25694916i bk14: 1040a 25694296i bk15: 1036a 25694297i 
dram_util_bins: 0 0 0 0 0 0 0 0 0 0
dram_eff_bins: 0 0 0 0 0 0 0 0 0 0
mrqq: max=1 avg=9.33794e-07
Memory Partition 8: 
Cache L2_bank_016:
MSHR contents

Cache L2_bank_017:
MSHR contents

In Dram Latency Queue (total = 0): 
DRAM[8]: 16 bks, busW=4 BL=8 CL=12, tRRD=2 tCCD=6, tRCD=12 tRAS=28 tRP=12 tRC=40
n_cmd=25701601 n_nop=25678587 n_act=3221 n_pre=3205 n_req=4147 n_rd=16588 n_write=0 bw_util=0.001291
n_activity=146277 dram_eff=0.2268
bk0: 1036a 25694486i bk1: 1036a 25694437i bk2: 1044a 25694658i bk3: 1040a 25694424i bk4: 1040a 25694462i bk5: 1040a 25694416i bk6: 1040a 25694950i bk7: 1040a 25694845i bk8: 1036a 25695000i bk9: 1040a 25694962i bk10: 1024a 25695273i bk11: 1024a 25695197i bk12: 1036a 25694880i bk13: 1036a 25694855i bk14: 1040a 25694387i bk15: 1036a 25694316i 
dram_util_bins: 0 0 0 0 0 0 0 0 0 0
dram_eff_bins: 0 0 0 0 0 0 0 0 0 0
mrqq: max=1 avg=3.96862e-06
Memory Partition 9: 
Cache L2_bank_018:
MSHR contents

Cache L2_bank_019:
MSHR contents

In Dram Latency Queue (total = 0): 
DRAM[9]: 16 bks, busW=4 BL=8 CL=12, tRRD=2 tCCD=6, tRCD=12 tRAS=28 tRP=12 tRC=40
n_cmd=25701601 n_nop=25678561 n_act=3228 n_pre=3212 n_req=4150 n_rd=16596 n_write=4 bw_util=0.001292
n_activity=146946 dram_eff=0.2259
bk0: 1040a 25694413i bk1: 1040a 25694365i bk2: 1044a 25694471i bk3: 1048a 25694376i bk4: 1032a 25694481i bk5: 1036a 25694504i bk6: 1040a 25694877i bk7: 1028a 25694883i bk8: 1040a 25694980i bk9: 1048a 25694880i bk10: 1028a 25695203i bk11: 1024a 25695341i bk12: 1040a 25694904i bk13: 1036a 25694975i bk14: 1036a 25694371i bk15: 1036a 25694364i 
dram_util_bins: 0 0 0 0 0 0 0 0 0 0
dram_eff_bins: 0 0 0 0 0 0 0 0 0 0
mrqq: max=2 avg=2.4123e-06
Memory Partition 10: 
Cache L2_bank_020:
MSHR contents

Cache L2_bank_021:
MSHR contents

In Dram Latency Queue (total = 0): 
DRAM[10]: 16 bks, busW=4 BL=8 CL=12, tRRD=2 tCCD=6, tRCD=12 tRAS=28 tRP=12 tRC=40
n_cmd=25701601 n_nop=25678533 n_act=3250 n_pre=3234 n_req=4146 n_rd=16584 n_write=0 bw_util=0.001291
n_activity=146816 dram_eff=0.2259
bk0: 1032a 25694443i bk1: 1032a 25694459i bk2: 1048a 25694425i bk3: 1048a 25694383i bk4: 1040a 25694500i bk5: 1040a 25694395i bk6: 1036a 25694812i bk7: 1032a 25694915i bk8: 1036a 25694957i bk9: 1044a 25694953i bk10: 1024a 25695057i bk11: 1020a 25695138i bk12: 1040a 25694948i bk13: 1036a 25694682i bk14: 1036a 25694492i bk15: 1040a 25694310i 
dram_util_bins: 0 0 0 0 0 0 0 0 0 0
dram_eff_bins: 0 0 0 0 0 0 0 0 0 0
mrqq: max=2 avg=4.39661e-06

========= L2 cache stats =========
L2_cache_bank[0]: Access = 69063, Miss = 2075, Miss_rate = 0.030, Pending_hits = 4, Reservation_fails = 0
L2_cache_bank[1]: Access = 69058, Miss = 2073, Miss_rate = 0.030, Pending_hits = 0, Reservation_fails = 0
L2_cache_bank[2]: Access = 69090, Miss = 2074, Miss_rate = 0.030, Pending_hits = 0, Reservation_fails = 0
L2_cache_bank[3]: Access = 69090, Miss = 2074, Miss_rate = 0.030, Pending_hits = 0, Reservation_fails = 0
L2_cache_bank[4]: Access = 69090, Miss = 2075, Miss_rate = 0.030, Pending_hits = 0, Reservation_fails = 0
L2_cache_bank[5]: Access = 69090, Miss = 2072, Miss_rate = 0.030, Pending_hits = 0, Reservation_fails = 0
L2_cache_bank[6]: Access = 70306, Miss = 2075, Miss_rate = 0.030, Pending_hits = 37, Reservation_fails = 0
L2_cache_bank[7]: Access = 70306, Miss = 2076, Miss_rate = 0.030, Pending_hits = 1, Reservation_fails = 0
L2_cache_bank[8]: Access = 70311, Miss = 2076, Miss_rate = 0.030, Pending_hits = 5, Reservation_fails = 0
L2_cache_bank[9]: Access = 70311, Miss = 2077, Miss_rate = 0.030, Pending_hits = 4, Reservation_fails = 0
L2_cache_bank[10]: Access = 70311, Miss = 2076, Miss_rate = 0.030, Pending_hits = 4, Reservation_fails = 0
L2_cache_bank[11]: Access = 70311, Miss = 2075, Miss_rate = 0.030, Pending_hits = 1, Reservation_fails = 0
L2_cache_bank[12]: Access = 69078, Miss = 2074, Miss_rate = 0.030, Pending_hits = 0, Reservation_fails = 0
L2_cache_bank[13]: Access = 69073, Miss = 2075, Miss_rate = 0.030, Pending_hits = 1, Reservation_fails = 0
L2_cache_bank[14]: Access = 69073, Miss = 2070, Miss_rate = 0.030, Pending_hits = 0, Reservation_fails = 0
L2_cache_bank[15]: Access = 69073, Miss = 2073, Miss_rate = 0.030, Pending_hits = 0, Reservation_fails = 0
L2_cache_bank[16]: Access = 69073, Miss = 2074, Miss_rate = 0.030, Pending_hits = 0, Reservation_fails = 0
L2_cache_bank[17]: Access = 69073, Miss = 2073, Miss_rate = 0.030, Pending_hits = 0, Reservation_fails = 0
L2_cache_bank[18]: Access = 70274, Miss = 2075, Miss_rate = 0.030, Pending_hits = 0, Reservation_fails = 0
L2_cache_bank[19]: Access = 70274, Miss = 2074, Miss_rate = 0.030, Pending_hits = 0, Reservation_fails = 0
L2_cache_bank[20]: Access = 70274, Miss = 2073, Miss_rate = 0.029, Pending_hits = 0, Reservation_fails = 0
L2_cache_bank[21]: Access = 69666, Miss = 2073, Miss_rate = 0.030, Pending_hits = 0, Reservation_fails = 0
L2_total_cache_accesses = 1531268
L2_total_cache_misses = 45632
L2_total_cache_miss_rate = 0.0298
L2_total_cache_pending_hits = 57
L2_total_cache_reservation_fails = 0
L2_total_cache_breakdown:
	L2_cache_stats_breakdown[GLOBAL_ACC_R][HIT] = 1439972
	L2_cache_stats_breakdown[GLOBAL_ACC_R][HIT_RESERVED] = 40
	L2_cache_stats_breakdown[GLOBAL_ACC_R][MISS] = 45626
	L2_cache_stats_breakdown[GLOBAL_ACC_R][RESERVATION_FAIL] = 0
	L2_cache_stats_breakdown[LOCAL_ACC_R][HIT] = 0
	L2_cache_stats_breakdown[LOCAL_ACC_R][HIT_RESERVED] = 0
	L2_cache_stats_breakdown[LOCAL_ACC_R][MISS] = 0
	L2_cache_stats_breakdown[LOCAL_ACC_R][RESERVATION_FAIL] = 0
	L2_cache_stats_breakdown[CONST_ACC_R][HIT] = 0
	L2_cache_stats_breakdown[CONST_ACC_R][HIT_RESERVED] = 4
	L2_cache_stats_breakdown[CONST_ACC_R][MISS] = 1
	L2_cache_stats_breakdown[CONST_ACC_R][RESERVATION_FAIL] = 0
	L2_cache_stats_breakdown[TEXTURE_ACC_R][HIT] = 0
	L2_cache_stats_breakdown[TEXTURE_ACC_R][HIT_RESERVED] = 0
	L2_cache_stats_breakdown[TEXTURE_ACC_R][MISS] = 0
	L2_cache_stats_breakdown[TEXTURE_ACC_R][RESERVATION_FAIL] = 0
	L2_cache_stats_breakdown[GLOBAL_ACC_W][HIT] = 45600
	L2_cache_stats_breakdown[GLOBAL_ACC_W][HIT_RESERVED] = 0
	L2_cache_stats_breakdown[GLOBAL_ACC_W][MISS] = 0
	L2_cache_stats_breakdown[GLOBAL_ACC_W][RESERVATION_FAIL] = 0
	L2_cache_stats_breakdown[LOCAL_ACC_W][HIT] = 0
	L2_cache_stats_breakdown[LOCAL_ACC_W][HIT_RESERVED] = 0
	L2_cache_stats_breakdown[LOCAL_ACC_W][MISS] = 0
	L2_cache_stats_breakdown[LOCAL_ACC_W][RESERVATION_FAIL] = 0
	L2_cache_stats_breakdown[L1_WRBK_ACC][HIT] = 0
	L2_cache_stats_breakdown[L1_WRBK_ACC][HIT_RESERVED] = 0
	L2_cache_stats_breakdown[L1_WRBK_ACC][MISS] = 0
	L2_cache_stats_breakdown[L1_WRBK_ACC][RESERVATION_FAIL] = 0
	L2_cache_stats_breakdown[L2_WRBK_ACC][HIT] = 0
	L2_cache_stats_breakdown[L2_WRBK_ACC][HIT_RESERVED] = 0
	L2_cache_stats_breakdown[L2_WRBK_ACC][MISS] = 0
	L2_cache_stats_breakdown[L2_WRBK_ACC][RESERVATION_FAIL] = 0
	L2_cache_stats_breakdown[INST_ACC_R][HIT] = 7
	L2_cache_stats_breakdown[INST_ACC_R][HIT_RESERVED] = 13
	L2_cache_stats_breakdown[INST_ACC_R][MISS] = 5
	L2_cache_stats_breakdown[INST_ACC_R][RESERVATION_FAIL] = 0
	L2_cache_stats_breakdown[L1_WR_ALLOC_R][HIT] = 0
	L2_cache_stats_breakdown[L1_WR_ALLOC_R][HIT_RESERVED] = 0
	L2_cache_stats_breakdown[L1_WR_ALLOC_R][MISS] = 0
	L2_cache_stats_breakdown[L1_WR_ALLOC_R][RESERVATION_FAIL] = 0
	L2_cache_stats_breakdown[L2_WR_ALLOC_R][HIT] = 0
	L2_cache_stats_breakdown[L2_WR_ALLOC_R][HIT_RESERVED] = 0
	L2_cache_stats_breakdown[L2_WR_ALLOC_R][MISS] = 0
	L2_cache_stats_breakdown[L2_WR_ALLOC_R][RESERVATION_FAIL] = 0
	L2_cache_stats_breakdown[GLOBAL_ACC_R][TOTAL_ACCESS] = 1485638
	L2_cache_stats_breakdown[CONST_ACC_R][TOTAL_ACCESS] = 5
	L2_cache_stats_breakdown[GLOBAL_ACC_W][TOTAL_ACCESS] = 45600
	L2_cache_stats_breakdown[INST_ACC_R][TOTAL_ACCESS] = 25
L2_cache_data_port_util = 0.005
L2_cache_fill_port_util = 0.001

icnt_total_pkts_mem_to_simt=3017128
icnt_total_pkts_simt_to_mem=1711268
LD_mem_lat_dist  0 0 0 0 0 0 0 0 0 0 0 0 0 0 0 0 0 0 0 0 0 0 0 0 0 0 0
ST_mem_lat_dist  0 0 0 0 0 0 0 0 0 0 0 0 0 0 0 0 0 0 0 0 0 0 0 0 0 0 0
----------------------------Interconnect-DETAILS--------------------------------
Class 0:
Packet latency average = 34.7233
	minimum = 6
	maximum = 551
Network latency average = 29.9139
	minimum = 6
	maximum = 343
Slowest packet = 5553
Flit latency average = 34.7327
	minimum = 6
	maximum = 342
Slowest flit = 1401955
Fragmentation average = 0
	minimum = 0
	maximum = 0
Injected packet rate average = 0.00221258
	minimum = 0 (at node 0)
	maximum = 0.0117912 (at node 1)
Accepted packet rate average = 0.00221258
	minimum = 0 (at node 0)
	maximum = 0.0117912 (at node 1)
Injected flit rate average = 0.00341611
	minimum = 0 (at node 0)
	maximum = 0.0131783 (at node 1)
Accepted flit rate average= 0.00341611
	minimum = 0 (at node 0)
	maximum = 0.023237 (at node 1)
Injected packet length average = 1.54395
Accepted packet length average = 1.54395
Total in-flight flits = 0 (0 measured)
====== Overall Traffic Statistics ======
====== Traffic class 0 ======
Packet latency average = 34.7233 (1 samples)
	minimum = 6 (1 samples)
	maximum = 551 (1 samples)
Network latency average = 29.9139 (1 samples)
	minimum = 6 (1 samples)
	maximum = 343 (1 samples)
Flit latency average = 34.7327 (1 samples)
	minimum = 6 (1 samples)
	maximum = 342 (1 samples)
Fragmentation average = 0 (1 samples)
	minimum = 0 (1 samples)
	maximum = 0 (1 samples)
Injected packet rate average = 0.00221258 (1 samples)
	minimum = 0 (1 samples)
	maximum = 0.0117912 (1 samples)
Accepted packet rate average = 0.00221258 (1 samples)
	minimum = 0 (1 samples)
	maximum = 0.0117912 (1 samples)
Injected flit rate average = 0.00341611 (1 samples)
	minimum = 0 (1 samples)
	maximum = 0.0131783 (1 samples)
Accepted flit rate average = 0.00341611 (1 samples)
	minimum = 0 (1 samples)
	maximum = 0.023237 (1 samples)
Injected packet size average = 1.54395 (1 samples)
Accepted packet size average = 1.54395 (1 samples)
Hops average = 1 (1 samples)
----------------------------END-of-Interconnect-DETAILS-------------------------


gpgpu_simulation_time = 0 days, 0 hrs, 50 min, 53 sec (3053 sec)
gpgpu_simulation_rate = 2170 (inst/sec)
gpgpu_simulation_rate = 4606 (cycle/sec)

GPGPU-Sim PTX: cudaLaunch for 0x0x4010a2 (mode=performance simulation) on stream 0
GPGPU-Sim PTX: pushing kernel '_Z12atax_kernel2PfS_S_' to stream 0, gridDim= (5,1,1) blockDim = (256,1,1) 
GPGPU-Sim uArch: Shader 6 bind to kernel 2 '_Z12atax_kernel2PfS_S_'
GPGPU-Sim uArch: CTA/core = 8, limited by: threads
GPGPU-Sim uArch: Shader 7 bind to kernel 2 '_Z12atax_kernel2PfS_S_'
GPGPU-Sim uArch: Shader 8 bind to kernel 2 '_Z12atax_kernel2PfS_S_'
GPGPU-Sim uArch: Shader 9 bind to kernel 2 '_Z12atax_kernel2PfS_S_'
GPGPU-Sim uArch: Shader 10 bind to kernel 2 '_Z12atax_kernel2PfS_S_'
Destroy streams for kernel 2: size 0
kernel_name = _Z12atax_kernel2PfS_S_ 
kernel_launch_uid = 2 
gpu_sim_cycle = 1078129
gpu_sim_insn = 6738800
gpu_ipc =       6.2505
gpu_tot_sim_cycle = 15363910
gpu_tot_sim_insn = 13366000
gpu_tot_ipc =       0.8700
gpu_tot_issued_cta = 10
max_total_param_size = 0
gpu_stall_dramfull = 4851
gpu_stall_icnt2sh    = 1387522
partiton_reqs_in_parallel = 23718838
partiton_reqs_in_parallel_total    = 304507731
partiton_level_parallism =      22.0000
partiton_level_parallism_total  =      21.3635
partiton_reqs_in_parallel_util = 23718838
partiton_reqs_in_parallel_util_total    = 304507731
gpu_sim_cycle_parition_util = 1078129
gpu_tot_sim_cycle_parition_util    = 13841481
partiton_level_parallism_util =      22.0000
partiton_level_parallism_util_total  =      21.9997
partiton_replys_in_parallel = 159073
partiton_replys_in_parallel_total    = 1531268
L2_BW  =      13.9849 GB/Sec
L2_BW_total  =      10.4282 GB/Sec
gpu_total_sim_rate=4038

========= Core cache stats =========
L1I_cache:
	L1I_total_cache_accesses = 217384
	L1I_total_cache_misses = 365
	L1I_total_cache_miss_rate = 0.0017
	L1I_total_cache_pending_hits = 0
	L1I_total_cache_reservation_fails = 0
L1D_cache:
	L1D_cache_core[0]: Access = 0, Miss = 0, Miss_rate = -nan, Pending_hits = 0, Reservation_fails = 0
	L1D_cache_core[1]: Access = 0, Miss = 0, Miss_rate = -nan, Pending_hits = 0, Reservation_fails = 0
	L1D_cache_core[2]: Access = 0, Miss = 0, Miss_rate = -nan, Pending_hits = 0, Reservation_fails = 0
	L1D_cache_core[3]: Access = 0, Miss = 0, Miss_rate = -nan, Pending_hits = 0, Reservation_fails = 0
	L1D_cache_core[4]: Access = 0, Miss = 0, Miss_rate = -nan, Pending_hits = 0, Reservation_fails = 0
	L1D_cache_core[5]: Access = 0, Miss = 0, Miss_rate = -nan, Pending_hits = 0, Reservation_fails = 0
	L1D_cache_core[6]: Access = 0, Miss = 0, Miss_rate = -nan, Pending_hits = 0, Reservation_fails = 0
	L1D_cache_core[7]: Access = 0, Miss = 0, Miss_rate = -nan, Pending_hits = 0, Reservation_fails = 0
	L1D_cache_core[8]: Access = 0, Miss = 0, Miss_rate = -nan, Pending_hits = 0, Reservation_fails = 0
	L1D_cache_core[9]: Access = 0, Miss = 0, Miss_rate = -nan, Pending_hits = 0, Reservation_fails = 0
	L1D_cache_core[10]: Access = 0, Miss = 0, Miss_rate = -nan, Pending_hits = 0, Reservation_fails = 0
	L1D_cache_core[11]: Access = 0, Miss = 0, Miss_rate = -nan, Pending_hits = 0, Reservation_fails = 0
	L1D_cache_core[12]: Access = 0, Miss = 0, Miss_rate = -nan, Pending_hits = 0, Reservation_fails = 0
	L1D_cache_core[13]: Access = 0, Miss = 0, Miss_rate = -nan, Pending_hits = 0, Reservation_fails = 0
	L1D_cache_core[14]: Access = 0, Miss = 0, Miss_rate = -nan, Pending_hits = 0, Reservation_fails = 0
	L1D_cache_core[15]: Access = 0, Miss = 0, Miss_rate = -nan, Pending_hits = 0, Reservation_fails = 0
	L1D_cache_core[16]: Access = 0, Miss = 0, Miss_rate = -nan, Pending_hits = 0, Reservation_fails = 0
	L1D_cache_core[17]: Access = 0, Miss = 0, Miss_rate = -nan, Pending_hits = 0, Reservation_fails = 0
	L1D_cache_core[18]: Access = 0, Miss = 0, Miss_rate = -nan, Pending_hits = 0, Reservation_fails = 0
	L1D_cache_core[19]: Access = 0, Miss = 0, Miss_rate = -nan, Pending_hits = 0, Reservation_fails = 0
	L1D_cache_core[20]: Access = 0, Miss = 0, Miss_rate = -nan, Pending_hits = 0, Reservation_fails = 0
	L1D_cache_core[21]: Access = 0, Miss = 0, Miss_rate = -nan, Pending_hits = 0, Reservation_fails = 0
	L1D_cache_core[22]: Access = 0, Miss = 0, Miss_rate = -nan, Pending_hits = 0, Reservation_fails = 0
	L1D_cache_core[23]: Access = 0, Miss = 0, Miss_rate = -nan, Pending_hits = 0, Reservation_fails = 0
	L1D_cache_core[24]: Access = 0, Miss = 0, Miss_rate = -nan, Pending_hits = 0, Reservation_fails = 0
	L1D_cache_core[25]: Access = 0, Miss = 0, Miss_rate = -nan, Pending_hits = 0, Reservation_fails = 0
	L1D_cache_core[26]: Access = 0, Miss = 0, Miss_rate = -nan, Pending_hits = 0, Reservation_fails = 0
	L1D_cache_core[27]: Access = 0, Miss = 0, Miss_rate = -nan, Pending_hits = 0, Reservation_fails = 0
	L1D_total_cache_accesses = 0
	L1D_total_cache_misses = 0
	L1D_total_cache_pending_hits = 0
	L1D_total_cache_reservation_fails = 0
	L1D_cache_data_port_util = 0.000
	L1D_cache_fill_port_util = 0.000
L1C_cache:
	L1C_total_cache_accesses = 240
	L1C_total_cache_misses = 200
	L1C_total_cache_miss_rate = 0.8333
	L1C_total_cache_pending_hits = 0
	L1C_total_cache_reservation_fails = 0
L1T_cache:
	L1T_total_cache_accesses = 0
	L1T_total_cache_misses = 0
	L1T_total_cache_pending_hits = 0
	L1T_total_cache_reservation_fails = 0

Total_core_cache_stats:
	Total_core_cache_stats_breakdown[GLOBAL_ACC_R][HIT] = 0
	Total_core_cache_stats_breakdown[GLOBAL_ACC_R][HIT_RESERVED] = 0
	Total_core_cache_stats_breakdown[GLOBAL_ACC_R][MISS] = 0
	Total_core_cache_stats_breakdown[GLOBAL_ACC_R][RESERVATION_FAIL] = 0
	Total_core_cache_stats_breakdown[LOCAL_ACC_R][HIT] = 0
	Total_core_cache_stats_breakdown[LOCAL_ACC_R][HIT_RESERVED] = 0
	Total_core_cache_stats_breakdown[LOCAL_ACC_R][MISS] = 0
	Total_core_cache_stats_breakdown[LOCAL_ACC_R][RESERVATION_FAIL] = 0
	Total_core_cache_stats_breakdown[CONST_ACC_R][HIT] = 40
	Total_core_cache_stats_breakdown[CONST_ACC_R][HIT_RESERVED] = 0
	Total_core_cache_stats_breakdown[CONST_ACC_R][MISS] = 200
	Total_core_cache_stats_breakdown[CONST_ACC_R][RESERVATION_FAIL] = 0
	Total_core_cache_stats_breakdown[TEXTURE_ACC_R][HIT] = 0
	Total_core_cache_stats_breakdown[TEXTURE_ACC_R][HIT_RESERVED] = 0
	Total_core_cache_stats_breakdown[TEXTURE_ACC_R][MISS] = 0
	Total_core_cache_stats_breakdown[TEXTURE_ACC_R][RESERVATION_FAIL] = 0
	Total_core_cache_stats_breakdown[GLOBAL_ACC_W][HIT] = 0
	Total_core_cache_stats_breakdown[GLOBAL_ACC_W][HIT_RESERVED] = 0
	Total_core_cache_stats_breakdown[GLOBAL_ACC_W][MISS] = 0
	Total_core_cache_stats_breakdown[GLOBAL_ACC_W][RESERVATION_FAIL] = 0
	Total_core_cache_stats_breakdown[LOCAL_ACC_W][HIT] = 0
	Total_core_cache_stats_breakdown[LOCAL_ACC_W][HIT_RESERVED] = 0
	Total_core_cache_stats_breakdown[LOCAL_ACC_W][MISS] = 0
	Total_core_cache_stats_breakdown[LOCAL_ACC_W][RESERVATION_FAIL] = 0
	Total_core_cache_stats_breakdown[L1_WRBK_ACC][HIT] = 0
	Total_core_cache_stats_breakdown[L1_WRBK_ACC][HIT_RESERVED] = 0
	Total_core_cache_stats_breakdown[L1_WRBK_ACC][MISS] = 0
	Total_core_cache_stats_breakdown[L1_WRBK_ACC][RESERVATION_FAIL] = 0
	Total_core_cache_stats_breakdown[L2_WRBK_ACC][HIT] = 0
	Total_core_cache_stats_breakdown[L2_WRBK_ACC][HIT_RESERVED] = 0
	Total_core_cache_stats_breakdown[L2_WRBK_ACC][MISS] = 0
	Total_core_cache_stats_breakdown[L2_WRBK_ACC][RESERVATION_FAIL] = 0
	Total_core_cache_stats_breakdown[INST_ACC_R][HIT] = 217019
	Total_core_cache_stats_breakdown[INST_ACC_R][HIT_RESERVED] = 0
	Total_core_cache_stats_breakdown[INST_ACC_R][MISS] = 365
	Total_core_cache_stats_breakdown[INST_ACC_R][RESERVATION_FAIL] = 0
	Total_core_cache_stats_breakdown[L1_WR_ALLOC_R][HIT] = 0
	Total_core_cache_stats_breakdown[L1_WR_ALLOC_R][HIT_RESERVED] = 0
	Total_core_cache_stats_breakdown[L1_WR_ALLOC_R][MISS] = 0
	Total_core_cache_stats_breakdown[L1_WR_ALLOC_R][RESERVATION_FAIL] = 0
	Total_core_cache_stats_breakdown[L2_WR_ALLOC_R][HIT] = 0
	Total_core_cache_stats_breakdown[L2_WR_ALLOC_R][HIT_RESERVED] = 0
	Total_core_cache_stats_breakdown[L2_WR_ALLOC_R][MISS] = 0
	Total_core_cache_stats_breakdown[L2_WR_ALLOC_R][RESERVATION_FAIL] = 0
	Total_core_cache_stats_breakdown[CONST_ACC_R][TOTAL_ACCESS] = 240
	Total_core_cache_stats_breakdown[INST_ACC_R][TOTAL_ACCESS] = 217384
Shader 0 warp_id issue ditsribution:
warp_id:

distro:

gpgpu_n_tot_thrd_icount = 13548736
gpgpu_n_tot_w_icount = 423398
gpgpu_n_stall_shd_mem = 1430764
gpgpu_n_mem_read_local = 0
gpgpu_n_mem_write_local = 0
gpgpu_n_mem_read_global = 1599076
gpgpu_n_mem_write_global = 91200
gpgpu_n_mem_texture = 0
gpgpu_n_mem_const = 10
gpgpu_n_load_insn  = 5762400
gpgpu_n_store_insn = 2880000
gpgpu_n_shmem_insn = 0
gpgpu_n_tex_insn = 0
gpgpu_n_const_mem_insn = 0
gpgpu_n_param_mem_insn = 7680
gpgpu_n_shmem_bkconflict = 0
gpgpu_n_cache_bkconflict = 0
gpgpu_n_intrawarp_mshr_merge = 0
gpgpu_n_cmem_portconflict = 0
gpgpu_stall_shd_mem[c_mem][bk_conf] = 0
gpgpu_stall_shd_mem[c_mem][mshr_rc] = 0
gpgpu_stall_shd_mem[c_mem][icnt_rc] = 0
gpgpu_stall_shd_mem[c_mem][data_port_stall] = 0
gpgpu_stall_shd_mem[t_mem][mshr_rc] = 0
gpgpu_stall_shd_mem[t_mem][icnt_rc] = 0
gpgpu_stall_shd_mem[t_mem][data_port_stall] = 0
gpgpu_stall_shd_mem[s_mem][bk_conf] = 0
gpgpu_stall_shd_mem[gl_mem][bk_conf] = 0
gpgpu_stall_shd_mem[gl_mem][coal_stall] = 1418660
gpgpu_stall_shd_mem[gl_mem][data_port_stall] = 0
gpgpu_stall_shd_mem[g_mem_ld][mshr_rc] = 0
gpgpu_stall_shd_mem[g_mem_ld][icnt_rc] = 12104
gpgpu_stall_shd_mem[g_mem_ld][wb_icnt_rc] = 0
gpgpu_stall_shd_mem[g_mem_ld][wb_rsrv_fail] = 0
gpgpu_stall_shd_mem[g_mem_st][mshr_rc] = 0
gpgpu_stall_shd_mem[g_mem_st][icnt_rc] = 0
gpgpu_stall_shd_mem[g_mem_st][wb_icnt_rc] = 0
gpgpu_stall_shd_mem[g_mem_st][wb_rsrv_fail] = 0
gpgpu_stall_shd_mem[l_mem_ld][mshr_rc] = 0
gpgpu_stall_shd_mem[l_mem_ld][icnt_rc] = 0
gpgpu_stall_shd_mem[l_mem_ld][wb_icnt_rc] = 0
gpgpu_stall_shd_mem[l_mem_ld][wb_rsrv_fail] = 0
gpgpu_stall_shd_mem[l_mem_st][mshr_rc] = 0
gpgpu_stall_shd_mem[l_mem_st][icnt_rc] = 0
gpgpu_stall_shd_mem[l_mem_ld][wb_icnt_rc] = 0
gpgpu_stall_shd_mem[l_mem_ld][wb_rsrv_fail] = 0
gpu_reg_bank_conflict_stalls = 0
Warp Occupancy Distribution:
Stall:18540	W0_Idle:31666018	W0_Scoreboard:116154133	W1:0	W2:0	W3:0	W4:0	W5:0	W6:0	W7:0	W8:0	W9:0	W10:0	W11:0	W12:0	W13:0	W14:0	W15:0	W16:11121	W17:0	W18:0	W19:0	W20:0	W21:0	W22:0	W23:0	W24:0	W25:0	W26:0	W27:0	W28:0	W29:0	W30:0	W31:0	W32:412277
traffic_breakdown_coretomem[CONST_ACC_R] = 80 {8:10,}
traffic_breakdown_coretomem[GLOBAL_ACC_R] = 12792608 {8:1599076,}
traffic_breakdown_coretomem[GLOBAL_ACC_W] = 12249600 {72:2400,136:88800,}
traffic_breakdown_coretomem[INST_ACC_R] = 440 {8:55,}
traffic_breakdown_memtocore[CONST_ACC_R] = 720 {72:10,}
traffic_breakdown_memtocore[GLOBAL_ACC_R] = 67560608 {40:1531200,72:45602,136:22274,}
traffic_breakdown_memtocore[GLOBAL_ACC_W] = 729600 {8:91200,}
traffic_breakdown_memtocore[INST_ACC_R] = 7480 {136:55,}
maxmrqlatency = 23 
maxdqlatency = 0 
maxmflatency = 850164 
averagemflatency = 3737 
max_icnt2mem_latency = 850001 
max_icnt2sh_latency = 15285018 
mrq_lat_table:77256 	223 	144 	137 	21 	0 	0 	0 	0 	0 	0 	0 	0 	0 	0 	0 	0 	0 	0 	0 	0 	0 	0 	0 	0 	0 	0 	0 	0 	0 	0 	0 	
dq_lat_table:0 	0 	0 	0 	0 	0 	0 	0 	0 	0 	0 	0 	0 	0 	0 	0 	0 	0 	0 	0 	0 	0 	0 	0 	0 	0 	0 	0 	0 	0 	0 	0 	
mf_lat_table:0 	0 	0 	0 	0 	0 	0 	1525748 	140278 	253 	186 	967 	1193 	2146 	2281 	688 	1546 	3782 	8270 	2948 	0 	0 	0 	0 	0 	0 	0 	0 	0 	0 	0 	0 	
icnt2mem_lat_table:0 	0 	1384566 	201959 	17826 	31 	61736 	168 	17 	42 	224 	960 	1271 	2049 	2258 	689 	1558 	3772 	8267 	2948 	0 	0 	0 	0 	
icnt2sh_lat_table:0 	0 	480666 	298642 	399731 	216180 	159422 	44395 	50 	0 	0 	0 	0 	0 	0 	0 	0 	0 	0 	0 	8708 	8751 	10747 	62994 	
mf_lat_pw_table:0 	0 	0 	0 	0 	0 	0 	6129 	31 	63 	75 	36 	51 	55 	49 	88 	152 	166 	399 	75 	0 	0 	0 	0 	0 	0 	0 	0 	0 	0 	0 	0 	
maximum concurrent accesses to same row:
dram[0]:        16        16        16        16        16        16        16        16        16        16        16        16        16        16        16        16 
dram[1]:        16        16        16        16        16        16        16        16        16        16        16        16        16        16        16        16 
dram[2]:        16        16        16        16        16        16        16        16        16        16        16        16        16        16        16        16 
dram[3]:        16        16        16        16        16        16        16        16        16        16        16        16        16        16        16        16 
dram[4]:        16        16        16        16        16        16        16        16        16        16        16        16        16        16        16        16 
dram[5]:        16        16        16        16        16        16        16        16        16        16        16        16        16        16        16        16 
dram[6]:        16        16        16        16        16        16        16        16        16        16        16        16        16        16        16        16 
dram[7]:        16        16        16        16        16        16        16        16        16        16        16        16        16        16        16        16 
dram[8]:        16        16        16        16        16        16        16        16        16        16        16        16        16        16        16        16 
dram[9]:        16        16        16        16        16        16        16        16        16        16        16        16        16        16        16        16 
dram[10]:        16        16        16        16        16        16        16        16        16        16        16        16        16        16        16        16 
maximum service time to same row:
dram[0]:    734178    931502    992707    684556    913828    936784   1489562   1489649   1524222   1534526   1496688   1496306    975524   1467336    651528    966283 
[...]
F: 11820260----T: 11828962 	 St: c0600000 Sz: 65536 	 Sm: 0 	 T: write_back(5.875760)
F: 11828962----T: 11837664 	 St: c0620000 Sz: 65536 	 Sm: 0 	 T: write_back(5.875760)
F: 11844030----T: 11859256 	 St: c00e2000 Sz: 122880 	 Sm: 0 	 T: memcpy_h2d(10.280891)
F: 11859256----T: 11867496 	 St: c0270000 Sz: 61440 	 Sm: 0 	 T: memcpy_h2d(5.563808)
F: 11859282----T: 12101362 	 St: c0000000 Sz: 2097152 	 Sm: 0 	 T: write_back(163.457123)
F: 11867496----T: 11870101 	 St: c027f000 Sz: 4096 	 Sm: 0 	 T: memcpy_h2d(1.758947)
F: 11870101----T: 11872706 	 St: c0280000 Sz: 4096 	 Sm: 0 	 T: memcpy_h2d(1.758947)
F: 11872706----T: 11880946 	 St: c0281000 Sz: 61440 	 Sm: 0 	 T: memcpy_h2d(5.563808)
F: 11880946----T: 11883551 	 St: c0290000 Sz: 4096 	 Sm: 0 	 T: memcpy_h2d(1.758947)
F: 11883551----T: 11891791 	 St: c0291000 Sz: 61440 	 Sm: 0 	 T: memcpy_h2d(5.563808)
F: 11891791----T: 11894396 	 St: c02a0000 Sz: 4096 	 Sm: 0 	 T: memcpy_h2d(1.758947)
F: 11894396----T: 11910091 	 St: c02a1000 Sz: 126976 	 Sm: 0 	 T: memcpy_h2d(10.597569)
F: 11910091----T: 11913903 	 St: c0310000 Sz: 20480 	 Sm: 0 	 T: memcpy_h2d(2.573936)
F: 11913903----T: 11920315 	 St: c0315000 Sz: 45056 	 Sm: 0 	 T: memcpy_h2d(4.329507)
F: 11920315----T: 11922920 	 St: c0320000 Sz: 4096 	 Sm: 0 	 T: memcpy_h2d(1.758947)
F: 11922920----T: 11931160 	 St: c0321000 Sz: 61440 	 Sm: 0 	 T: memcpy_h2d(5.563808)
F: 11931160----T: 11939862 	 St: c0300000 Sz: 65536 	 Sm: 0 	 T: memcpy_h2d(5.875760)
F: 11939862----T: 11942467 	 St: c0330000 Sz: 4096 	 Sm: 0 	 T: memcpy_h2d(1.758947)
F: 11942467----T: 11950707 	 St: c0331000 Sz: 61440 	 Sm: 0 	 T: memcpy_h2d(5.563808)
F: 11950707----T: 12004483 	 St: c0200000 Sz: 458752 	 Sm: 0 	 T: memcpy_h2d(36.310600)
F: 12004483----T: 12010444 	 St: c02c0000 Sz: 40960 	 Sm: 0 	 T: memcpy_h2d(4.024983)
F: 12010444----T: 12036936 	 St: c02ca000 Sz: 221184 	 Sm: 0 	 T: memcpy_h2d(17.887913)
F: 12036936----T: 12128368 	 St: c0340000 Sz: 786432 	 Sm: 0 	 T: memcpy_h2d(61.736664)
F: 12128368----T: 12130973 	 St: c0600000 Sz: 4096 	 Sm: 0 	 T: memcpy_h2d(1.758947)
F: 12130973----T: 12139213 	 St: c0601000 Sz: 61440 	 Sm: 0 	 T: memcpy_h2d(5.563808)
F: 12131293----T: 12373373 	 St: c0200000 Sz: 2097152 	 Sm: 0 	 T: write_back(163.457123)
F: 12139213----T: 12141818 	 St: c0620000 Sz: 4096 	 Sm: 0 	 T: memcpy_h2d(1.758947)
F: 12141818----T: 12150058 	 St: c0621000 Sz: 61440 	 Sm: 0 	 T: memcpy_h2d(5.563808)
F: 12150058----T: 12152858 	 St: c00e0000 Sz: 8192 	 Sm: 0 	 T: memcpy_h2d(1.890614)
F: 12152858----T: 12160638 	 St: c00e2000 Sz: 57344 	 Sm: 0 	 T: memcpy_h2d(5.253207)
F: 12160638----T: 12163243 	 St: c00f0000 Sz: 4096 	 Sm: 0 	 T: memcpy_h2d(1.758947)
F: 12163243----T: 12171483 	 St: c00f1000 Sz: 61440 	 Sm: 0 	 T: memcpy_h2d(5.563808)
F: 12171483----T: 12174283 	 St: c0100000 Sz: 8192 	 Sm: 0 	 T: memcpy_h2d(1.890614)
F: 12174283----T: 12182063 	 St: c0102000 Sz: 57344 	 Sm: 0 	 T: memcpy_h2d(5.253207)
F: 12182063----T: 12187137 	 St: c01e0000 Sz: 32768 	 Sm: 0 	 T: memcpy_h2d(3.426064)
F: 12187137----T: 12192211 	 St: c01e8000 Sz: 32768 	 Sm: 0 	 T: memcpy_h2d(3.426064)
F: 12192211----T: 12195011 	 St: c01f0000 Sz: 8192 	 Sm: 0 	 T: memcpy_h2d(1.890614)
F: 12195011----T: 12202791 	 St: c01f2000 Sz: 57344 	 Sm: 0 	 T: memcpy_h2d(5.253207)
F: 12202791----T: 12207865 	 St: c0170000 Sz: 32768 	 Sm: 0 	 T: memcpy_h2d(3.426064)
F: 12207865----T: 12212939 	 St: c0178000 Sz: 32768 	 Sm: 0 	 T: memcpy_h2d(3.426064)
F: 12212939----T: 12217580 	 St: c0020000 Sz: 28672 	 Sm: 0 	 T: memcpy_h2d(3.133693)
F: 12217580----T: 12223095 	 St: c0027000 Sz: 36864 	 Sm: 0 	 T: memcpy_h2d(3.723835)
F: 12223095----T: 12225895 	 St: c0180000 Sz: 8192 	 Sm: 0 	 T: memcpy_h2d(1.890614)
F: 12225895----T: 12233675 	 St: c0182000 Sz: 57344 	 Sm: 0 	 T: memcpy_h2d(5.253207)
F: 12233675----T: 12236280 	 St: c0030000 Sz: 4096 	 Sm: 0 	 T: memcpy_h2d(1.758947)
F: 12236280----T: 12244520 	 St: c0031000 Sz: 61440 	 Sm: 0 	 T: memcpy_h2d(5.563808)
F: 12244520----T: 12247125 	 St: c0190000 Sz: 4096 	 Sm: 0 	 T: memcpy_h2d(1.758947)
F: 12247125----T: 12255365 	 St: c0191000 Sz: 61440 	 Sm: 0 	 T: memcpy_h2d(5.563808)
F: 12255365----T: 12257970 	 St: c0040000 Sz: 4096 	 Sm: 0 	 T: memcpy_h2d(1.758947)
F: 12257970----T: 12266210 	 St: c0041000 Sz: 61440 	 Sm: 0 	 T: memcpy_h2d(5.563808)
F: 12266210----T: 12268815 	 St: c0070000 Sz: 4096 	 Sm: 0 	 T: memcpy_h2d(1.758947)
F: 12268815----T: 12277055 	 St: c0071000 Sz: 61440 	 Sm: 0 	 T: memcpy_h2d(5.563808)
F: 12277055----T: 12279660 	 St: c0080000 Sz: 4096 	 Sm: 0 	 T: memcpy_h2d(1.758947)
F: 12279660----T: 12287900 	 St: c0081000 Sz: 61440 	 Sm: 0 	 T: memcpy_h2d(5.563808)
F: 12287900----T: 12290505 	 St: c0090000 Sz: 4096 	 Sm: 0 	 T: memcpy_h2d(1.758947)
F: 12290505----T: 12298745 	 St: c0091000 Sz: 61440 	 Sm: 0 	 T: memcpy_h2d(5.563808)
F: 12298745----T: 12314908 	 St: c0000000 Sz: 131072 	 Sm: 0 	 T: memcpy_h2d(10.913572)
F: 12314908----T: 12331071 	 St: c0050000 Sz: 131072 	 Sm: 0 	 T: memcpy_h2d(10.913572)
F: 12331071----T: 12345361 	 St: c00a0000 Sz: 114688 	 Sm: 0 	 T: memcpy_h2d(9.648886)
F: 12345361----T: 12363400 	 St: c00bc000 Sz: 147456 	 Sm: 0 	 T: memcpy_h2d(12.180284)
F: 12363400----T: 12409647 	 St: c0110000 Sz: 393216 	 Sm: 0 	 T: memcpy_h2d(31.226873)
F: 12373374----T: 12382076 	 St: c0600000 Sz: 65536 	 Sm: 0 	 T: write_back(5.875760)
F: 12382076----T: 12390778 	 St: c0620000 Sz: 65536 	 Sm: 0 	 T: write_back(5.875760)
F: 12409647----T: 12440840 	 St: c01a0000 Sz: 262144 	 Sm: 0 	 T: memcpy_h2d(21.062120)
F: 12440840----T: 12449080 	 St: c0270000 Sz: 61440 	 Sm: 0 	 T: memcpy_h2d(5.563808)
F: 12440841----T: 12682921 	 St: c0000000 Sz: 2097152 	 Sm: 0 	 T: write_back(163.457123)
F: 12449080----T: 12451685 	 St: c027f000 Sz: 4096 	 Sm: 0 	 T: memcpy_h2d(1.758947)
F: 12451685----T: 12454290 	 St: c0280000 Sz: 4096 	 Sm: 0 	 T: memcpy_h2d(1.758947)
F: 12454290----T: 12462530 	 St: c0281000 Sz: 61440 	 Sm: 0 	 T: memcpy_h2d(5.563808)
F: 12462530----T: 12465135 	 St: c0290000 Sz: 4096 	 Sm: 0 	 T: memcpy_h2d(1.758947)
F: 12465135----T: 12473375 	 St: c0291000 Sz: 61440 	 Sm: 0 	 T: memcpy_h2d(5.563808)
F: 12473375----T: 12475980 	 St: c02a0000 Sz: 4096 	 Sm: 0 	 T: memcpy_h2d(1.758947)
F: 12475980----T: 12491675 	 St: c02a1000 Sz: 126976 	 Sm: 0 	 T: memcpy_h2d(10.597569)
F: 12491675----T: 12495487 	 St: c0310000 Sz: 20480 	 Sm: 0 	 T: memcpy_h2d(2.573936)
F: 12495487----T: 12501899 	 St: c0315000 Sz: 45056 	 Sm: 0 	 T: memcpy_h2d(4.329507)
F: 12501899----T: 12504504 	 St: c0320000 Sz: 4096 	 Sm: 0 	 T: memcpy_h2d(1.758947)
F: 12504504----T: 12512744 	 St: c0321000 Sz: 61440 	 Sm: 0 	 T: memcpy_h2d(5.563808)
F: 12512744----T: 12521446 	 St: c0300000 Sz: 65536 	 Sm: 0 	 T: memcpy_h2d(5.875760)
F: 12521446----T: 12524051 	 St: c0330000 Sz: 4096 	 Sm: 0 	 T: memcpy_h2d(1.758947)
F: 12524051----T: 12532291 	 St: c0331000 Sz: 61440 	 Sm: 0 	 T: memcpy_h2d(5.563808)
F: 12532291----T: 12586067 	 St: c0200000 Sz: 458752 	 Sm: 0 	 T: memcpy_h2d(36.310600)
F: 12586067----T: 12592028 	 St: c02c0000 Sz: 40960 	 Sm: 0 	 T: memcpy_h2d(4.024983)
F: 12592028----T: 12618520 	 St: c02ca000 Sz: 221184 	 Sm: 0 	 T: memcpy_h2d(17.887913)
F: 12618520----T: 12709952 	 St: c0340000 Sz: 786432 	 Sm: 0 	 T: memcpy_h2d(61.736664)
F: 12709952----T: 12712557 	 St: c0600000 Sz: 4096 	 Sm: 0 	 T: memcpy_h2d(1.758947)
F: 12712557----T: 12720797 	 St: c0601000 Sz: 61440 	 Sm: 0 	 T: memcpy_h2d(5.563808)
F: 12712877----T: 12954957 	 St: c0200000 Sz: 2097152 	 Sm: 0 	 T: write_back(163.457123)
F: 12720797----T: 12723402 	 St: c0620000 Sz: 4096 	 Sm: 0 	 T: memcpy_h2d(1.758947)
F: 12723402----T: 12731642 	 St: c0621000 Sz: 61440 	 Sm: 0 	 T: memcpy_h2d(5.563808)
F: 12731642----T: 12736716 	 St: c01e0000 Sz: 32768 	 Sm: 0 	 T: memcpy_h2d(3.426064)
F: 12736716----T: 12741790 	 St: c01e8000 Sz: 32768 	 Sm: 0 	 T: memcpy_h2d(3.426064)
F: 12741790----T: 12744590 	 St: c01f0000 Sz: 8192 	 Sm: 0 	 T: memcpy_h2d(1.890614)
F: 12744590----T: 12752370 	 St: c01f2000 Sz: 57344 	 Sm: 0 	 T: memcpy_h2d(5.253207)
F: 12752370----T: 12757011 	 St: c0090000 Sz: 28672 	 Sm: 0 	 T: memcpy_h2d(3.133693)
F: 12757011----T: 12762526 	 St: c0097000 Sz: 36864 	 Sm: 0 	 T: memcpy_h2d(3.723835)
F: 12762526----T: 12765326 	 St: c00a0000 Sz: 8192 	 Sm: 0 	 T: memcpy_h2d(1.890614)
F: 12765326----T: 12773106 	 St: c00a2000 Sz: 57344 	 Sm: 0 	 T: memcpy_h2d(5.253207)
F: 12773106----T: 12781808 	 St: c0080000 Sz: 65536 	 Sm: 0 	 T: memcpy_h2d(5.875760)
F: 12781808----T: 12784413 	 St: c00b0000 Sz: 4096 	 Sm: 0 	 T: memcpy_h2d(1.758947)
F: 12784413----T: 12792653 	 St: c00b1000 Sz: 61440 	 Sm: 0 	 T: memcpy_h2d(5.563808)
F: 12792653----T: 12795258 	 St: c00c0000 Sz: 4096 	 Sm: 0 	 T: memcpy_h2d(1.758947)
F: 12795258----T: 12825981 	 St: c00c1000 Sz: 258048 	 Sm: 0 	 T: memcpy_h2d(20.744766)
F: 12825981----T: 12880699 	 St: c0000000 Sz: 466944 	 Sm: 0 	 T: memcpy_h2d(36.946659)
F: 12880699----T: 12888479 	 St: c0072000 Sz: 57344 	 Sm: 0 	 T: memcpy_h2d(5.253207)
F: 12888479----T: 12994975 	 St: c0100000 Sz: 917504 	 Sm: 0 	 T: memcpy_h2d(71.908173)
F: 12954958----T: 12963660 	 St: c0600000 Sz: 65536 	 Sm: 0 	 T: write_back(5.875760)
F: 12963660----T: 12972362 	 St: c0620000 Sz: 65536 	 Sm: 0 	 T: write_back(5.875760)
F: 12994975----T: 13003215 	 St: c0270000 Sz: 61440 	 Sm: 0 	 T: memcpy_h2d(5.563808)
F: 12995007----T: 13237087 	 St: c0000000 Sz: 2097152 	 Sm: 0 	 T: write_back(163.457123)
F: 13003215----T: 13005820 	 St: c027f000 Sz: 4096 	 Sm: 0 	 T: memcpy_h2d(1.758947)
F: 13005820----T: 13008425 	 St: c0280000 Sz: 4096 	 Sm: 0 	 T: memcpy_h2d(1.758947)
F: 13008425----T: 13016665 	 St: c0281000 Sz: 61440 	 Sm: 0 	 T: memcpy_h2d(5.563808)
F: 13016665----T: 13019270 	 St: c0290000 Sz: 4096 	 Sm: 0 	 T: memcpy_h2d(1.758947)
F: 13019270----T: 13027510 	 St: c0291000 Sz: 61440 	 Sm: 0 	 T: memcpy_h2d(5.563808)
F: 13027510----T: 13030115 	 St: c02a0000 Sz: 4096 	 Sm: 0 	 T: memcpy_h2d(1.758947)
F: 13030115----T: 13045810 	 St: c02a1000 Sz: 126976 	 Sm: 0 	 T: memcpy_h2d(10.597569)
F: 13045810----T: 13049622 	 St: c0310000 Sz: 20480 	 Sm: 0 	 T: memcpy_h2d(2.573936)
F: 13049622----T: 13056034 	 St: c0315000 Sz: 45056 	 Sm: 0 	 T: memcpy_h2d(4.329507)
F: 13056034----T: 13058639 	 St: c0320000 Sz: 4096 	 Sm: 0 	 T: memcpy_h2d(1.758947)
F: 13058639----T: 13066879 	 St: c0321000 Sz: 61440 	 Sm: 0 	 T: memcpy_h2d(5.563808)
F: 13066879----T: 13075581 	 St: c0300000 Sz: 65536 	 Sm: 0 	 T: memcpy_h2d(5.875760)
F: 13075581----T: 13078186 	 St: c0330000 Sz: 4096 	 Sm: 0 	 T: memcpy_h2d(1.758947)
F: 13078186----T: 13086426 	 St: c0331000 Sz: 61440 	 Sm: 0 	 T: memcpy_h2d(5.563808)
F: 13086426----T: 13140202 	 St: c0200000 Sz: 458752 	 Sm: 0 	 T: memcpy_h2d(36.310600)
F: 13140202----T: 13146163 	 St: c02c0000 Sz: 40960 	 Sm: 0 	 T: memcpy_h2d(4.024983)
F: 13146163----T: 13172655 	 St: c02ca000 Sz: 221184 	 Sm: 0 	 T: memcpy_h2d(17.887913)
F: 13172655----T: 13264087 	 St: c0340000 Sz: 786432 	 Sm: 0 	 T: memcpy_h2d(61.736664)
F: 13264087----T: 13266692 	 St: c0600000 Sz: 4096 	 Sm: 0 	 T: memcpy_h2d(1.758947)
F: 13266692----T: 13274932 	 St: c0601000 Sz: 61440 	 Sm: 0 	 T: memcpy_h2d(5.563808)
F: 13266980----T: 13509060 	 St: c0200000 Sz: 2097152 	 Sm: 0 	 T: write_back(163.457123)
F: 13274932----T: 13277537 	 St: c0620000 Sz: 4096 	 Sm: 0 	 T: memcpy_h2d(1.758947)
F: 13277537----T: 13285777 	 St: c0621000 Sz: 61440 	 Sm: 0 	 T: memcpy_h2d(5.563808)
F: 13285777----T: 13290851 	 St: c0100000 Sz: 32768 	 Sm: 0 	 T: memcpy_h2d(3.426064)
F: 13290851----T: 13295925 	 St: c0108000 Sz: 32768 	 Sm: 0 	 T: memcpy_h2d(3.426064)
F: 13295925----T: 13298530 	 St: c0110000 Sz: 4096 	 Sm: 0 	 T: memcpy_h2d(1.758947)
F: 13298530----T: 13306770 	 St: c0111000 Sz: 61440 	 Sm: 0 	 T: memcpy_h2d(5.563808)
F: 13306770----T: 13309375 	 St: c0120000 Sz: 4096 	 Sm: 0 	 T: memcpy_h2d(1.758947)
F: 13309375----T: 13325070 	 St: c0121000 Sz: 126976 	 Sm: 0 	 T: memcpy_h2d(10.597569)
F: 13325070----T: 13330144 	 St: c01e0000 Sz: 32768 	 Sm: 0 	 T: memcpy_h2d(3.426064)
F: 13330144----T: 13335218 	 St: c01e8000 Sz: 32768 	 Sm: 0 	 T: memcpy_h2d(3.426064)
F: 13335218----T: 13338018 	 St: c01f0000 Sz: 8192 	 Sm: 0 	 T: memcpy_h2d(1.890614)
F: 13338018----T: 13345798 	 St: c01f2000 Sz: 57344 	 Sm: 0 	 T: memcpy_h2d(5.253207)
F: 13345798----T: 13348598 	 St: c0070000 Sz: 8192 	 Sm: 0 	 T: memcpy_h2d(1.890614)
F: 13348598----T: 13356378 	 St: c0072000 Sz: 57344 	 Sm: 0 	 T: memcpy_h2d(5.253207)
F: 13356378----T: 13358983 	 St: c0080000 Sz: 4096 	 Sm: 0 	 T: memcpy_h2d(1.758947)
F: 13358983----T: 13367223 	 St: c0081000 Sz: 61440 	 Sm: 0 	 T: memcpy_h2d(5.563808)
F: 13367223----T: 13370023 	 St: c0090000 Sz: 8192 	 Sm: 0 	 T: memcpy_h2d(1.890614)
F: 13370023----T: 13377803 	 St: c0092000 Sz: 57344 	 Sm: 0 	 T: memcpy_h2d(5.253207)
F: 13377803----T: 13392561 	 St: c00a0000 Sz: 118784 	 Sm: 0 	 T: memcpy_h2d(9.964889)
F: 13392561----T: 13395647 	 St: c00bd000 Sz: 12288 	 Sm: 0 	 T: memcpy_h2d(2.083727)
F: 13395647----T: 13449423 	 St: c0000000 Sz: 458752 	 Sm: 0 	 T: memcpy_h2d(36.310600)
F: 13449423----T: 13452028 	 St: c00c0000 Sz: 4096 	 Sm: 0 	 T: memcpy_h2d(1.758947)
F: 13452028----T: 13482751 	 St: c00c1000 Sz: 258048 	 Sm: 0 	 T: memcpy_h2d(20.744766)
F: 13482751----T: 13559120 	 St: c0140000 Sz: 655360 	 Sm: 0 	 T: memcpy_h2d(51.565834)
F: 13509061----T: 13517763 	 St: c0600000 Sz: 65536 	 Sm: 0 	 T: write_back(5.875760)
F: 13517763----T: 13526465 	 St: c0620000 Sz: 65536 	 Sm: 0 	 T: write_back(5.875760)
F: 13559120----T: 13562932 	 St: c0310000 Sz: 20480 	 Sm: 0 	 T: memcpy_h2d(2.573936)
F: 13559121----T: 13801201 	 St: c0000000 Sz: 2097152 	 Sm: 0 	 T: write_back(163.457123)
F: 13562932----T: 13569344 	 St: c0315000 Sz: 45056 	 Sm: 0 	 T: memcpy_h2d(4.329507)
F: 13569344----T: 13571949 	 St: c0320000 Sz: 4096 	 Sm: 0 	 T: memcpy_h2d(1.758947)
F: 13571949----T: 13580189 	 St: c0321000 Sz: 61440 	 Sm: 0 	 T: memcpy_h2d(5.563808)
F: 13580189----T: 13588891 	 St: c0300000 Sz: 65536 	 Sm: 0 	 T: memcpy_h2d(5.875760)
F: 13588891----T: 13591496 	 St: c0330000 Sz: 4096 	 Sm: 0 	 T: memcpy_h2d(1.758947)
F: 13591496----T: 13599736 	 St: c0331000 Sz: 61440 	 Sm: 0 	 T: memcpy_h2d(5.563808)
F: 13599736----T: 13607976 	 St: c0270000 Sz: 61440 	 Sm: 0 	 T: memcpy_h2d(5.563808)
F: 13607976----T: 13610581 	 St: c027f000 Sz: 4096 	 Sm: 0 	 T: memcpy_h2d(1.758947)
F: 13610581----T: 13613186 	 St: c0280000 Sz: 4096 	 Sm: 0 	 T: memcpy_h2d(1.758947)
F: 13613186----T: 13621426 	 St: c0281000 Sz: 61440 	 Sm: 0 	 T: memcpy_h2d(5.563808)
F: 13621426----T: 13624031 	 St: c0290000 Sz: 4096 	 Sm: 0 	 T: memcpy_h2d(1.758947)
F: 13624031----T: 13632271 	 St: c0291000 Sz: 61440 	 Sm: 0 	 T: memcpy_h2d(5.563808)
F: 13632271----T: 13634876 	 St: c02a0000 Sz: 4096 	 Sm: 0 	 T: memcpy_h2d(1.758947)
F: 13634876----T: 13650571 	 St: c02a1000 Sz: 126976 	 Sm: 0 	 T: memcpy_h2d(10.597569)
F: 13650571----T: 13704347 	 St: c0200000 Sz: 458752 	 Sm: 0 	 T: memcpy_h2d(36.310600)
F: 13704347----T: 13710308 	 St: c02c0000 Sz: 40960 	 Sm: 0 	 T: memcpy_h2d(4.024983)
F: 13710308----T: 13736800 	 St: c02ca000 Sz: 221184 	 Sm: 0 	 T: memcpy_h2d(17.887913)
F: 13736800----T: 13828232 	 St: c0340000 Sz: 786432 	 Sm: 0 	 T: memcpy_h2d(61.736664)
F: 13828232----T: 13831032 	 St: c0600000 Sz: 8192 	 Sm: 0 	 T: memcpy_h2d(1.890614)
F: 13831032----T: 13838812 	 St: c0602000 Sz: 57344 	 Sm: 0 	 T: memcpy_h2d(5.253207)
F: 13838812----T: 13841417 	 St: c0620000 Sz: 4096 	 Sm: 0 	 T: memcpy_h2d(1.758947)
F: 13841417----T: 13849657 	 St: c0621000 Sz: 61440 	 Sm: 0 	 T: memcpy_h2d(5.563808)
F: 13849657----T: 13854731 	 St: c01e0000 Sz: 32768 	 Sm: 0 	 T: memcpy_h2d(3.426064)
F: 13854731----T: 13859805 	 St: c01e8000 Sz: 32768 	 Sm: 0 	 T: memcpy_h2d(3.426064)
F: 13859805----T: 13862605 	 St: c01f0000 Sz: 8192 	 Sm: 0 	 T: memcpy_h2d(1.890614)
F: 13862605----T: 13870385 	 St: c01f2000 Sz: 57344 	 Sm: 0 	 T: memcpy_h2d(5.253207)
F: 13870385----T: 13877707 	 St: c00b0000 Sz: 53248 	 Sm: 0 	 T: memcpy_h2d(4.943957)
F: 13877707----T: 13880793 	 St: c00bd000 Sz: 12288 	 Sm: 0 	 T: memcpy_h2d(2.083727)
F: 13880793----T: 13883398 	 St: c00c0000 Sz: 4096 	 Sm: 0 	 T: memcpy_h2d(1.758947)
F: 13883398----T: 13891638 	 St: c00c1000 Sz: 61440 	 Sm: 0 	 T: memcpy_h2d(5.563808)
F: 13891638----T: 13894243 	 St: c00d0000 Sz: 4096 	 Sm: 0 	 T: memcpy_h2d(1.758947)
F: 13894243----T: 13902483 	 St: c00d1000 Sz: 61440 	 Sm: 0 	 T: memcpy_h2d(5.563808)
F: 13902483----T: 13926155 	 St: c0080000 Sz: 196608 	 Sm: 0 	 T: memcpy_h2d(15.983795)
F: 13926155----T: 13928760 	 St: c00e0000 Sz: 4096 	 Sm: 0 	 T: memcpy_h2d(1.758947)
F: 13928760----T: 13944455 	 St: c00e1000 Sz: 126976 	 Sm: 0 	 T: memcpy_h2d(10.597569)
F: 14285781----T: 15363910 	 	 	 Kl: 2 	 Sm: 0 	 T: kernel_launch(727.973694)
F: 14286477----T: 14289082 	 St: c0610000 Sz: 4096 	 Sm: 0 	 T: memcpy_h2d(1.758947)
F: 14286779----T: 14295481 	 St: c0600000 Sz: 65536 	 Sm: 0 	 T: write_back(5.875760)
F: 14289082----T: 14297322 	 St: c0611000 Sz: 61440 	 Sm: 0 	 T: memcpy_h2d(5.563808)
F: 14295481----T: 14537561 	 St: c0200000 Sz: 2097152 	 Sm: 0 	 T: write_back(163.457123)
F: 14297322----T: 14299927 	 St: c0000000 Sz: 4096 	 Sm: 0 	 T: memcpy_h2d(1.758947)
F: 14299927----T: 14360763 	 St: c0001000 Sz: 520192 	 Sm: 0 	 T: memcpy_h2d(41.077652)
F: 14360763----T: 14467259 	 St: c0100000 Sz: 917504 	 Sm: 0 	 T: memcpy_h2d(71.908173)
F: 14522761----T: 14525366 	 St: c0200000 Sz: 4096 	 Sm: 0 	 T: memcpy_h2d(1.758947)
F: 14525366----T: 14533606 	 St: c0201000 Sz: 61440 	 Sm: 0 	 T: memcpy_h2d(5.563808)
F: 14536718----T: 14539323 	 St: c0210000 Sz: 4096 	 Sm: 0 	 T: memcpy_h2d(1.758947)
F: 14539323----T: 14547563 	 St: c0211000 Sz: 61440 	 Sm: 0 	 T: memcpy_h2d(5.563808)
F: 14551970----T: 14554575 	 St: c0220000 Sz: 4096 	 Sm: 0 	 T: memcpy_h2d(1.758947)
F: 14554575----T: 14570270 	 St: c0221000 Sz: 126976 	 Sm: 0 	 T: memcpy_h2d(10.597569)
F: 14578361----T: 14580966 	 St: c0240000 Sz: 4096 	 Sm: 0 	 T: memcpy_h2d(1.758947)
F: 14580966----T: 14611689 	 St: c0241000 Sz: 258048 	 Sm: 0 	 T: memcpy_h2d(20.744766)
F: 14625551----T: 14628351 	 St: c0280000 Sz: 8192 	 Sm: 0 	 T: memcpy_h2d(1.890614)
F: 14628351----T: 14688716 	 St: c0282000 Sz: 516096 	 Sm: 0 	 T: memcpy_h2d(40.759621)
F: 14724244----T: 14726849 	 St: c0300000 Sz: 4096 	 Sm: 0 	 T: memcpy_h2d(1.758947)
F: 14724244----T: 14966324 	 St: c0000000 Sz: 2097152 	 Sm: 0 	 T: write_back(163.457123)
F: 14726849----T: 14847938 	 St: c0301000 Sz: 1044480 	 Sm: 0 	 T: memcpy_h2d(81.761650)
F: 14937928----T: 14940533 	 St: c0420000 Sz: 4096 	 Sm: 0 	 T: memcpy_h2d(1.758947)
F: 14940533----T: 14956228 	 St: c0421000 Sz: 126976 	 Sm: 0 	 T: memcpy_h2d(10.597569)
F: 14965718----T: 14968323 	 St: c0440000 Sz: 4096 	 Sm: 0 	 T: memcpy_h2d(1.758947)
F: 14968323----T: 14999046 	 St: c0441000 Sz: 258048 	 Sm: 0 	 T: memcpy_h2d(20.744766)
F: 15018559----T: 15021164 	 St: c0480000 Sz: 4096 	 Sm: 0 	 T: memcpy_h2d(1.758947)
F: 15021164----T: 15082000 	 St: c0481000 Sz: 520192 	 Sm: 0 	 T: memcpy_h2d(41.077652)
F: 15121829----T: 15124434 	 St: c0500000 Sz: 4096 	 Sm: 0 	 T: memcpy_h2d(1.758947)
F: 15121829----T: 15363909 	 St: c0200000 Sz: 2097152 	 Sm: 0 	 T: write_back(163.457123)
F: 15124434----T: 15245523 	 St: c0501000 Sz: 1044480 	 Sm: 0 	 T: memcpy_h2d(81.761650)
F: 15363910----T: 15366515 	 St: 0 Sz: 4096 	 Sm: 0 	 T: device_sync(1.758947)
F: 15363910----T: 15366710 	 St: 0 Sz: 8192 	 Sm: 0 	 T: device_sync(1.890614)
Tot_prefetch_time: 0(cycle), 0.000000(us)
Tot_kernel_exec_time: 14919610(cycle), 10074.010742(us)
Tot_kernel_exec_time_and_fault_time: 50374750(cycle), 34014.011719(us)
Tot_memcpy_h2d_time: 14401375(cycle), 9724.088867(us)
Tot_memcpy_d2h_time: 0(cycle), 0.000000(us)
Tot_memcpy_time: 14401375(cycle), 9724.088867(us)
Tot_devicesync_time: 5405(cycle), 3.649561(us)
Tot_writeback_time: 12495590(cycle), 8437.265625(us)
Tot_dma_time: 0(cycle), 0.000000(us)
Tot_memcpy_d2h_sync_wb_time: 12500995(cycle), 8440.915039(us)
GPGPU-Sim: *** exit detected ***
