

        *** GPGPU-Sim Simulator Version 3.2.2  [build gpgpu-sim_git-commit-32a5e88e7f0bd0281e1f3b1056e517909662bd85_modified_0] ***


GPGPU-Sim PTX: simulation mode 0 (can change with PTX_SIM_MODE_FUNC environment variable:
               1=functional simulation only, 0=detailed performance simulator)
GPGPU-Sim: Configuration options:

-network_mode                           1 # Interconnection network mode
-inter_config_file   config_fermi_islip.icnt # Interconnection network config file
-gpgpu_ptx_use_cuobjdump                    1 # Use cuobjdump to extract ptx and sass from binaries
-gpgpu_experimental_lib_support                    0 # Try to extract code from cuda libraries [Broken because of unknown cudaGetExportTable]
-gpgpu_ptx_convert_to_ptxplus                    0 # Convert SASS (native ISA) to ptxplus and run ptxplus
-gpgpu_ptx_force_max_capability                   20 # Force maximum compute capability
-gpgpu_ptx_inst_debug_to_file                    0 # Dump executed instructions' debug information to file
-gpgpu_ptx_inst_debug_file       inst_debug.txt # Executed instructions' debug output file
-gpgpu_ptx_inst_debug_thread_uid                    1 # Thread UID for executed instructions' debug output
-gpgpu_simd_model                       1 # 1 = post-dominator
-gpgpu_shader_core_pipeline              2048:32 # shader core pipeline config, i.e., {<nthread>:<warpsize>}
-gpgpu_tex_cache:l1  16:128:24,L:R:m:N:L,F:128:4,128:2 # per-shader L1 texture cache  (READ-ONLY) config  {<nsets>:<bsize>:<assoc>,<rep>:<wr>:<alloc>:<wr_alloc>,<mshr>:<N>:<merge>,<mq>:<rf>}
-gpgpu_const_cache:l1 128:64:2,L:R:f:N:L,A:2:64,4 # per-shader L1 constant memory cache  (READ-ONLY) config  {<nsets>:<bsize>:<assoc>,<rep>:<wr>:<alloc>:<wr_alloc>,<mshr>:<N>:<merge>,<mq>} 
-gpgpu_cache:il1     8:128:4,L:R:f:N:L,A:2:48,4 # shader L1 instruction cache config  {<nsets>:<bsize>:<assoc>,<rep>:<wr>:<alloc>:<wr_alloc>,<mshr>:<N>:<merge>,<mq>} 
-gpgpu_cache:dl1     64:128:6,L:L:m:N:H,A:128:8,8 # per-shader L1 data cache config  {<nsets>:<bsize>:<assoc>,<rep>:<wr>:<alloc>:<wr_alloc>,<mshr>:<N>:<merge>,<mq> | none}
-gpgpu_cache:dl1PrefL1                 none # per-shader L1 data cache config  {<nsets>:<bsize>:<assoc>,<rep>:<wr>:<alloc>:<wr_alloc>,<mshr>:<N>:<merge>,<mq> | none}
-gpgpu_cache:dl1PrefShared                 none # per-shader L1 data cache config  {<nsets>:<bsize>:<assoc>,<rep>:<wr>:<alloc>:<wr_alloc>,<mshr>:<N>:<merge>,<mq> | none}
-gmem_skip_L1D                          1 # global memory access skip L1D cache (implements -Xptxas -dlcm=cg, default=no skip)
-gpgpu_perfect_mem                      0 # enable perfect memory mode (no cache miss)
-n_regfile_gating_group                    4 # group of lanes that should be read/written together)
-gpgpu_clock_gated_reg_file                    0 # enable clock gated reg file for power calculations
-gpgpu_clock_gated_lanes                    0 # enable clock gated lanes for power calculations
-gpgpu_shader_registers                65536 # Number of registers per shader core. Limits number of concurrent CTAs. (default 8192)
-gpgpu_shader_cta                      32 # Maximum number of concurrent CTAs in shader (default 8)
-gpgpu_num_cta_barriers                   16 # Maximum number of named barriers per CTA (default 16)
-gpgpu_n_clusters                      28 # number of processing clusters
-gpgpu_n_cores_per_cluster                    1 # number of simd cores per cluster
-gpgpu_n_cluster_ejection_buffer_size                    8 # number of packets in ejection buffer
-gpgpu_n_ldst_response_buffer_size                    2 # number of response packets in ld/st unit ejection buffer
-gpgpu_shmem_size                   16384 # Size of shared memory per shader core (default 16kB)
-gpgpu_shmem_size                   98304 # Size of shared memory per shader core (default 16kB)
-gpgpu_shmem_size_PrefL1                16384 # Size of shared memory per shader core (default 16kB)
-gpgpu_shmem_size_PrefShared                16384 # Size of shared memory per shader core (default 16kB)
-gpgpu_shmem_num_banks                   32 # Number of banks in the shared memory in each shader core (default 16)
-gpgpu_shmem_limited_broadcast                    0 # Limit shared memory to do one broadcast per cycle (default on)
-gpgpu_shmem_warp_parts                    1 # Number of portions a warp is divided into for shared memory bank conflict check 
-gpgpu_warpdistro_shader                   -1 # Specify which shader core to collect the warp size distribution from
-gpgpu_warp_issue_shader                    0 # Specify which shader core to collect the warp issue distribution from
-gpgpu_local_mem_map                    1 # Mapping from local memory space address to simulated GPU physical address space (default = enabled)
-gpgpu_num_reg_banks                   32 # Number of register banks (default = 8)
-gpgpu_reg_bank_use_warp_id                    0 # Use warp ID in mapping registers to banks (default = off)
-gpgpu_operand_collector_num_units_sp                   20 # number of collector units (default = 4)
-gpgpu_operand_collector_num_units_sfu                    4 # number of collector units (default = 4)
-gpgpu_operand_collector_num_units_mem                    8 # number of collector units (default = 2)
-gpgpu_operand_collector_num_units_gen                    0 # number of collector units (default = 0)
-gpgpu_operand_collector_num_in_ports_sp                    4 # number of collector unit in ports (default = 1)
-gpgpu_operand_collector_num_in_ports_sfu                    1 # number of collector unit in ports (default = 1)
-gpgpu_operand_collector_num_in_ports_mem                    1 # number of collector unit in ports (default = 1)
-gpgpu_operand_collector_num_in_ports_gen                    0 # number of collector unit in ports (default = 0)
-gpgpu_operand_collector_num_out_ports_sp                    4 # number of collector unit in ports (default = 1)
-gpgpu_operand_collector_num_out_ports_sfu                    1 # number of collector unit in ports (default = 1)
-gpgpu_operand_collector_num_out_ports_mem                    1 # number of collector unit in ports (default = 1)
-gpgpu_operand_collector_num_out_ports_gen                    0 # number of collector unit in ports (default = 0)
-gpgpu_coalesce_arch                   13 # Coalescing arch (default = 13, anything else is off for now)
-gpgpu_num_sched_per_core                    2 # Number of warp schedulers per core
-gpgpu_max_insn_issue_per_warp                    2 # Max number of instructions that can be issued per warp in one cycle by scheduler
-gpgpu_simt_core_sim_order                    1 # Select the simulation order of cores in a cluster (0=Fix, 1=Round-Robin)
-gpgpu_pipeline_widths        4,1,1,4,1,1,6 # Pipeline widths ID_OC_SP,ID_OC_SFU,ID_OC_MEM,OC_EX_SP,OC_EX_SFU,OC_EX_MEM,EX_WB
-gpgpu_num_sp_units                     4 # Number of SP units (default=1)
-gpgpu_num_sfu_units                    1 # Number of SF units (default=1)
-gpgpu_num_mem_units                    1 # Number if ldst units (default=1) WARNING: not hooked up to anything
-gpgpu_scheduler                      gto # Scheduler configuration: < lrr | gto | two_level_active > If two_level_active:<num_active_warps>:<inner_prioritization>:<outer_prioritization>For complete list of prioritization values see shader.h enum scheduler_prioritization_typeDefault: gto
-gpgpu_concurrent_kernel_sm                    0 # Support concurrent kernels on a SM (default = disabled)
-tlb_size                            4096 # Number of tlb entries per SM.
-gpgpu_dram_scheduler                    1 # 0 = fifo, 1 = FR-FCFS (defaul)
-gpgpu_dram_partition_queues              8:8:8:8 # i2$:$2d:d2$:$2i
-l2_ideal                               0 # Use a ideal L2 cache that always hit
-gpgpu_cache:dl2     64:128:16,L:B:m:W:L,A:1024:1024,4:0,32 # unified banked L2 data cache config  {<nsets>:<bsize>:<assoc>,<rep>:<wr>:<alloc>:<wr_alloc>,<mshr>:<N>:<merge>,<mq>}
-gpgpu_cache:dl2_texture_only                    0 # L2 cache used for texture only
-gpgpu_n_mem                           11 # number of memory modules (e.g. memory controllers) in gpu
-gpgpu_n_sub_partition_per_mchannel                    2 # number of memory subpartition in each memory module
-gpgpu_n_mem_per_ctrlr                    1 # number of memory chips per memory controller
-gpgpu_memlatency_stat                   14 # track and display latency statistics 0x2 enables MC, 0x4 enables queue logs
-gpgpu_frfcfs_dram_sched_queue_size                   64 # 0 = unlimited (default); # entries per chip
-gpgpu_dram_return_queue_size                  116 # 0 = unlimited (default); # entries per chip
-gpgpu_dram_buswidth                    4 # default = 4 bytes (8 bytes per cycle at DDR)
-gpgpu_dram_burst_length                    8 # Burst length of each DRAM request (default = 4 data bus cycle)
-dram_data_command_freq_ratio                    4 # Frequency ratio between DRAM data bus and command bus (default = 2 times, i.e. DDR)
-gpgpu_dram_timing_opt nbk=16:CCD=2:RRD=6:RCD=12:RAS=28:RP=12:RC=40: CL=12:WL=4:CDLR=5:WR=12:nbkgrp=1:CCDL=0:RTPL=0 # DRAM timing parameters = {nbk:tCCD:tRRD:tRCD:tRAS:tRP:tRC:CL:WL:tCDLR:tWR:nbkgrp:tCCDL:tRTPL}
-rop_latency                          120 # ROP queue latency (default 85)
-dram_latency                         100 # DRAM latency (default 30)
-gpgpu_mem_addr_mapping dramid@8;00000000.00000000.00000000.00000000.0000RRRR.RRRRRRRR.RBBBCCCC.BCCSSSSS # mapping memory address to dram model {dramid@<start bit>;<memory address map>}
-gpgpu_mem_addr_test                    0 # run sweep test to check address mapping for aliased address
-gpgpu_mem_address_mask                    1 # 0 = old addressing mask, 1 = new addressing mask, 2 = new add. mask + flipped bank sel and chip sel bits
-gpuwattch_xml_file  gpuwattch_geforcegtx1080ti.xml # GPUWattch XML file
-power_simulation_enabled                    1 # Turn on power simulator (1=On, 0=Off)
-power_per_cycle_dump                    0 # Dump detailed power output each cycle
-power_trace_enabled                    0 # produce a file for the power trace (1=On, 0=Off)
-power_trace_zlevel                     6 # Compression level of the power trace output log (0=no comp, 9=highest)
-steady_power_levels_enabled                    0 # produce a file for the steady power levels (1=On, 0=Off)
-steady_state_definition                  8:4 # allowed deviation:number of samples
-gpgpu_max_cycle                        0 # terminates gpu simulation early (0 = no limit)
-gpgpu_max_insn                         0 # terminates gpu simulation early (0 = no limit)
-gpgpu_max_cta                          0 # terminates gpu simulation early (0 = no limit)
-gpgpu_runtime_stat                   500 # display runtime statistics such as dram utilization {<freq>:<flag>}
-liveness_message_freq                    1 # Minimum number of seconds between simulation liveness messages (0 = always print)
-gpgpu_flush_l1_cache                    0 # Flush L1 cache at the end of each kernel call
-gpgpu_flush_l2_cache                    0 # Flush L2 cache at the end of each kernel call
-gpgpu_deadlock_detect                    0 # Stop the simulation at deadlock (1=on (default), 0=off)
-gpgpu_ptx_instruction_classification                    0 # if enabled will classify ptx instruction types per kernel (Max 255 kernels now)
-gpgpu_ptx_sim_mode                     0 # Select between Performance (default) or Functional simulation (1)
-gpgpu_clock_domains 1481.0:2962.0:1481.0:2750.0 # Clock Domain Frequencies in MhZ {<Core Clock>:<ICNT Clock>:<L2 Clock>:<DRAM Clock>}
-gpgpu_max_concurrent_kernel                    8 # maximum kernels that can run concurrently on GPU
-gpgpu_cflog_interval                    0 # Interval between each snapshot in control flow logger
-visualizer_enabled                     0 # Turn on visualizer output (1=On, 0=Off)
-visualizer_outputfile                 NULL # Specifies the output log file for visualizer
-visualizer_zlevel                      6 # Compression level of the visualizer output log (0=no comp, 9=highest)
-trace_enabled                          0 # Turn on traces
-trace_components                    none # comma seperated list of traces to enable. Complete list found in trace_streams.tup. Default none
-trace_sampling_core                    0 # The core which is printed using CORE_DPRINTF. Default 0
-trace_sampling_memory_partition                   -1 # The memory partition which is printed using MEMPART_DPRINTF. Default -1 (i.e. all)
-gddr_size                            6MB # Size of GDDR in MB/GB.(GLOBAL_HEAP_START, GLOBAL_HEAP_START + gddr_size) would be used for unmanged memory, (GLOBAL_HEAP_START + gddr_size, GLOBAL_HEAP_START + gddr_size*2) would be used for managed memory. 
-page_table_walk_latency                  100 # Average page table walk latency (in core cycle).
-eviction_policy                        0 # Select page eviction policy
-invalidate_clean                       0 # Should directly invalidate clean pages
-reserve_accessed_page_percent                    0 # Percentage of accessed pages reserved from eviction in hope that they will be accessed in next iteration.
-percentage_of_free_page_buffer                    0 # Percentage of free page buffer to trigger the page eviction.
-page_size                            4KB # GDDR page size, only 4KB/2MB avaliable.
-pcie_bandwidth                  16.0GB/s # PCI-e bandwidth per direction, in GB/s.
-enable_dma                             0 # Enable direct access to CPU memory
-multiply_dma_penalty                    2 # Oversubscription Multiplicative Penalty Factor for Adaptive DMA
-migrate_threshold                      8 # Access counter threshold for migrating the page from cpu to gpu
-sim_prof_enable                        1 # Enable gpgpu-sim profiler
-hardware_prefetch                      1 # Select gpgpu-sim hardware prefetcher
-hwprefetch_oversub                     1 # Select gpgpu-sim hardware prefetcher under over-subscription
-page_fault_latency                 66645 # Average fault latency (in core cycle).
-enable_accurate_simulation                    0 # Enable page fault functional simulation.
-enable_smart_runtime                    0 # Enable access pattern detection, policy engine, and adaptive memory management.
-enable_ptx_file_line_stats                    1 # Turn on PTX source line statistic profiling. (1 = On)
-ptx_line_stats_filename gpgpu_inst_stats.txt # Output file for PTX source line statistics.
-gpgpu_kernel_launch_latency               222150 # Kernel launch latency in cycles. Default: 0
-gpgpu_cdp_enabled                      0 # Turn on CDP
-save_embedded_ptx                      0 # saves ptx files embedded in binary as <n>.ptx
-keep                                   0 # keep intermediate files created by GPGPU-Sim when interfacing with external programs
-gpgpu_ptx_save_converted_ptxplus                    0 # Saved converted ptxplus to a file
-ptx_opcode_latency_int         4,13,4,5,145 # Opcode latencies for integers <ADD,MAX,MUL,MAD,DIV>Default 1,1,19,25,145
-ptx_opcode_latency_fp          4,13,4,5,39 # Opcode latencies for single precision floating points <ADD,MAX,MUL,MAD,DIV>Default 1,1,1,1,30
-ptx_opcode_latency_dp         8,19,8,8,330 # Opcode latencies for double precision floating points <ADD,MAX,MUL,MAD,DIV>Default 8,8,8,8,335
-ptx_opcode_initiation_int            1,2,2,2,8 # Opcode initiation intervals for integers <ADD,MAX,MUL,MAD,DIV>Default 1,1,4,4,32
-ptx_opcode_initiation_fp            1,2,1,1,4 # Opcode initiation intervals for single precision floating points <ADD,MAX,MUL,MAD,DIV>Default 1,1,1,1,5
-ptx_opcode_initiation_dp          1,2,1,1,130 # Opcode initiation intervals for double precision floating points <ADD,MAX,MUL,MAD,DIV>Default 8,8,8,8,130
-cdp_latency         7200,8000,100,12000,1600 # CDP API latency <cudaStreamCreateWithFlags, cudaGetParameterBufferV2_init_perWarp, cudaGetParameterBufferV2_perKernel, cudaLaunchDeviceV2_init_perWarp, cudaLaunchDevicV2_perKernel>Default 7200,8000,100,12000,1600
DRAM Timing Options:
nbk                                    16 # number of banks
CCD                                     2 # column to column delay
RRD                                     6 # minimal delay between activation of rows in different banks
RCD                                    12 # row to column delay
RAS                                    28 # time needed to activate row
RP                                     12 # time needed to precharge (deactivate) row
RC                                     40 # row cycle time
CDLR                                    5 # switching from write to read (changes tWTR)
WR                                     12 # last data-in to row precharge
CL                                     12 # CAS latency
WL                                      4 # Write latency
nbkgrp                                  1 # number of bank groups
CCDL                                    0 # column to column delay between accesses to different bank groups
RTPL                                    0 # read to precharge delay between accesses to different bank groups
Total number of memory sub partition = 22
addr_dec_mask[CHIP]  = 0000000000000000 	high:64 low:0
addr_dec_mask[BK]    = 0000000000007080 	high:15 low:7
addr_dec_mask[ROW]   = 000000000fff8000 	high:28 low:15
addr_dec_mask[COL]   = 0000000000000f7f 	high:12 low:0
addr_dec_mask[BURST] = 000000000000001f 	high:5 low:0
sub_partition_id_mask = 0000000000000080
GPGPU-Sim uArch: clock freqs: 1481000000.000000:2962000000.000000:1481000000.000000:2750000000.000000
GPGPU-Sim uArch: clock periods: 0.00000000067521944632:0.00000000033760972316:0.00000000067521944632:0.00000000036363636364
*** Initializing Memory Statistics ***
GPGPU-Sim uArch: interconnect node map (shaderID+MemID to icntID)
GPGPU-Sim uArch: Memory nodes ID start from index: 28
GPGPU-Sim uArch:    0   1   2   3   4   5   6
GPGPU-Sim uArch:    7   8   9  10  11  12  13
GPGPU-Sim uArch:   14  15  16  17  18  19  20
GPGPU-Sim uArch:   21  22  23  24  25  26  27
GPGPU-Sim uArch:   28  29  30  31  32  33  34
GPGPU-Sim uArch:   35  36  37  38  39  40  41
GPGPU-Sim uArch:   42  43  44  45  46  47  48
GPGPU-Sim uArch:   49
GPGPU-Sim uArch: interconnect node reverse map (icntID to shaderID+MemID)
GPGPU-Sim uArch: Memory nodes start from ID: 28
GPGPU-Sim uArch:    0   1   2   3   4   5   6
GPGPU-Sim uArch:    7   8   9  10  11  12  13
GPGPU-Sim uArch:   14  15  16  17  18  19  20
GPGPU-Sim uArch:   21  22  23  24  25  26  27
GPGPU-Sim uArch:   28  29  30  31  32  33  34
GPGPU-Sim uArch:   35  36  37  38  39  40  41
GPGPU-Sim uArch:   42  43  44  45  46  47  48
GPGPU-Sim uArch:   49
47fbc9db73fcf1434776bbeaca05ece4  /root/gpgpu-sim_UVMSmart/benchmarks/Managed/bfs/bfs
GPGPU-Sim uArch: performance model initialization complete.
GPGPU-Sim PTX: __cudaRegisterFatBinary, fat_cubin_handle = 1, filename=default
self exe links to: /root/gpgpu-sim_UVMSmart/benchmarks/Managed/bfs/bfs
Running md5sum using "md5sum /root/gpgpu-sim_UVMSmart/benchmarks/Managed/bfs/bfs "
Parsing file _cuobjdump_complete_output_SWJVdO
######### cuobjdump parser ########
## Adding new section ELF
Adding arch: sm_20
Adding identifier: default
## Adding new section ELF
Adding arch: sm_20
Adding identifier: default
## Adding new section PTX
Adding ptx filename: _cuobjdump_1.ptx
Adding arch: sm_20
Adding identifier: default
Done parsing!!!
GPGPU-Sim PTX: __cudaRegisterFunction _Z7Kernel2PbS_S_S_i : hostFun 0x0x401649, fat_cubin_handle = 1
GPGPU-Sim PTX: instruction assembly for function '_Z6KernelP4NodePiPbS2_S2_S1_i'...   done.
GPGPU-Sim PTX: finding reconvergence points for '_Z6KernelP4NodePiPbS2_S2_S1_i'...
GPGPU-Sim PTX: Finding dominators for '_Z6KernelP4NodePiPbS2_S2_S1_i'...
GPGPU-Sim PTX: Finding immediate dominators for '_Z6KernelP4NodePiPbS2_S2_S1_i'...
GPGPU-Sim PTX: Finding postdominators for '_Z6KernelP4NodePiPbS2_S2_S1_i'...
GPGPU-Sim PTX: Finding immediate postdominators for '_Z6KernelP4NodePiPbS2_S2_S1_i'...
GPGPU-Sim PTX: pre-decoding instructions for '_Z6KernelP4NodePiPbS2_S2_S1_i'...
GPGPU-Sim PTX: reconvergence points for _Z6KernelP4NodePiPbS2_S2_S1_i...
GPGPU-Sim PTX:  1 (potential) branch divergence @  PC=0x060 (_1.ptx:42) @%p1 bra BB0_7;
GPGPU-Sim PTX:    immediate post dominator      @  PC=0x1e8 (_1.ptx:101) ret;
GPGPU-Sim PTX:  2 (potential) branch divergence @  PC=0x090 (_1.ptx:49) @%p2 bra BB0_7;
GPGPU-Sim PTX:    immediate post dominator      @  PC=0x1e8 (_1.ptx:101) ret;
GPGPU-Sim PTX:  3 (potential) branch divergence @  PC=0x0d8 (_1.ptx:59) @%p3 bra BB0_7;
GPGPU-Sim PTX:    immediate post dominator      @  PC=0x1e8 (_1.ptx:101) ret;
GPGPU-Sim PTX:  4 (potential) branch divergence @  PC=0x160 (_1.ptx:79) @%p4 bra BB0_6;
GPGPU-Sim PTX:    immediate post dominator      @  PC=0x1b8 (_1.ptx:93) mov.u32 %r24, %r25;
GPGPU-Sim PTX:  5 (potential) branch divergence @  PC=0x1e0 (_1.ptx:98) @%p5 bra BB0_4;
GPGPU-Sim PTX:    immediate post dominator      @  PC=0x1e8 (_1.ptx:101) ret;
GPGPU-Sim PTX: ... end of reconvergence points for _Z6KernelP4NodePiPbS2_S2_S1_i
GPGPU-Sim PTX: ... done pre-decoding instructions for '_Z6KernelP4NodePiPbS2_S2_S1_i'.
GPGPU-Sim PTX: instruction assembly for function '_Z7Kernel2PbS_S_S_i'...   done.
GPGPU-Sim PTX: finding reconvergence points for '_Z7Kernel2PbS_S_S_i'...
GPGPU-Sim PTX: Finding dominators for '_Z7Kernel2PbS_S_S_i'...
GPGPU-Sim PTX: Finding immediate dominators for '_Z7Kernel2PbS_S_S_i'...
GPGPU-Sim PTX: Finding postdominators for '_Z7Kernel2PbS_S_S_i'...
GPGPU-Sim PTX: Finding immediate postdominators for '_Z7Kernel2PbS_S_S_i'...
GPGPU-Sim PTX: pre-decoding instructions for '_Z7Kernel2PbS_S_S_i'...
GPGPU-Sim PTX: reconvergence points for _Z7Kernel2PbS_S_S_i...
GPGPU-Sim PTX:  1 (potential) branch divergence @  PC=0x240 (_1.ptx:129) @%p1 bra BB1_3;
GPGPU-Sim PTX:    immediate post dominator      @  PC=0x2d0 (_1.ptx:151) ret;
GPGPU-Sim PTX:  2 (potential) branch divergence @  PC=0x270 (_1.ptx:136) @%p2 bra BB1_3;
GPGPU-Sim PTX:    immediate post dominator      @  PC=0x2d0 (_1.ptx:151) ret;
GPGPU-Sim PTX: ... end of reconvergence points for _Z7Kernel2PbS_S_S_i
GPGPU-Sim PTX: ... done pre-decoding instructions for '_Z7Kernel2PbS_S_S_i'.
GPGPU-Sim PTX: finished parsing EMBEDDED .ptx file _1.ptx
Adding _cuobjdump_1.ptx with cubin handle 1
GPGPU-Sim PTX: extracting embedded .ptx to temporary file "_ptx_rfzQiH"
Running: cat _ptx_rfzQiH | sed 's/.version 1.5/.version 1.4/' | sed 's/, texmode_independent//' | sed 's/\(\.extern \.const\[1\] .b8 \w\+\)\[\]/\1\[1\]/' | sed 's/const\[.\]/const\[0\]/g' > _ptx2_klgMnA
GPGPU-Sim PTX: generating ptxinfo using "$CUDA_INSTALL_PATH/bin/ptxas --gpu-name=sm_20 -v _ptx2_klgMnA --output-file  /dev/null 2> _ptx_rfzQiHinfo"
GPGPU-Sim PTX: Kernel '_Z7Kernel2PbS_S_S_i' : regs=12, lmem=0, smem=0, cmem=68
GPGPU-Sim PTX: Kernel '_Z6KernelP4NodePiPbS2_S2_S1_i' : regs=15, lmem=0, smem=0, cmem=84
GPGPU-Sim PTX: removing ptxinfo using "rm -f _ptx_rfzQiH _ptx2_klgMnA _ptx_rfzQiHinfo"
GPGPU-Sim PTX: loading globals with explicit initializers... 
GPGPU-Sim PTX: finished loading globals (0 bytes total).
GPGPU-Sim PTX: loading constants with explicit initializers...  done.
GPGPU-Sim PTX: __cudaRegisterFunction _Z6KernelP4NodePiPbS2_S2_S1_i : hostFun 0x0x401519, fat_cubin_handle = 1
Reading File
Read File
Copied Everything to GPU memory
Start traversing the tree

GPGPU-Sim PTX: cudaLaunch for 0x0x401519 (mode=performance simulation) on stream 0
GPGPU-Sim PTX: pushing kernel '_Z6KernelP4NodePiPbS2_S2_S1_i' to stream 0, gridDim= (511,1,1) blockDim = (512,1,1) 
GPGPU-Sim uArch: Shader 1 bind to kernel 1 '_Z6KernelP4NodePiPbS2_S2_S1_i'
GPGPU-Sim uArch: CTA/core = 4, limited by: threads
GPGPU-Sim uArch: Shader 2 bind to kernel 1 '_Z6KernelP4NodePiPbS2_S2_S1_i'
GPGPU-Sim uArch: Shader 3 bind to kernel 1 '_Z6KernelP4NodePiPbS2_S2_S1_i'
GPGPU-Sim uArch: Shader 4 bind to kernel 1 '_Z6KernelP4NodePiPbS2_S2_S1_i'
GPGPU-Sim uArch: Shader 5 bind to kernel 1 '_Z6KernelP4NodePiPbS2_S2_S1_i'
GPGPU-Sim uArch: Shader 6 bind to kernel 1 '_Z6KernelP4NodePiPbS2_S2_S1_i'
GPGPU-Sim uArch: Shader 7 bind to kernel 1 '_Z6KernelP4NodePiPbS2_S2_S1_i'
GPGPU-Sim uArch: Shader 8 bind to kernel 1 '_Z6KernelP4NodePiPbS2_S2_S1_i'
GPGPU-Sim uArch: Shader 9 bind to kernel 1 '_Z6KernelP4NodePiPbS2_S2_S1_i'
GPGPU-Sim uArch: Shader 10 bind to kernel 1 '_Z6KernelP4NodePiPbS2_S2_S1_i'
GPGPU-Sim uArch: Shader 11 bind to kernel 1 '_Z6KernelP4NodePiPbS2_S2_S1_i'
GPGPU-Sim uArch: Shader 12 bind to kernel 1 '_Z6KernelP4NodePiPbS2_S2_S1_i'
GPGPU-Sim uArch: Shader 13 bind to kernel 1 '_Z6KernelP4NodePiPbS2_S2_S1_i'
GPGPU-Sim uArch: Shader 14 bind to kernel 1 '_Z6KernelP4NodePiPbS2_S2_S1_i'
GPGPU-Sim uArch: Shader 15 bind to kernel 1 '_Z6KernelP4NodePiPbS2_S2_S1_i'
GPGPU-Sim uArch: Shader 16 bind to kernel 1 '_Z6KernelP4NodePiPbS2_S2_S1_i'
GPGPU-Sim uArch: Shader 17 bind to kernel 1 '_Z6KernelP4NodePiPbS2_S2_S1_i'
GPGPU-Sim uArch: Shader 18 bind to kernel 1 '_Z6KernelP4NodePiPbS2_S2_S1_i'
GPGPU-Sim uArch: Shader 19 bind to kernel 1 '_Z6KernelP4NodePiPbS2_S2_S1_i'
GPGPU-Sim uArch: Shader 20 bind to kernel 1 '_Z6KernelP4NodePiPbS2_S2_S1_i'
GPGPU-Sim uArch: Shader 21 bind to kernel 1 '_Z6KernelP4NodePiPbS2_S2_S1_i'
GPGPU-Sim uArch: Shader 22 bind to kernel 1 '_Z6KernelP4NodePiPbS2_S2_S1_i'
GPGPU-Sim uArch: Shader 23 bind to kernel 1 '_Z6KernelP4NodePiPbS2_S2_S1_i'
GPGPU-Sim uArch: Shader 24 bind to kernel 1 '_Z6KernelP4NodePiPbS2_S2_S1_i'
GPGPU-Sim uArch: Shader 25 bind to kernel 1 '_Z6KernelP4NodePiPbS2_S2_S1_i'
GPGPU-Sim uArch: Shader 26 bind to kernel 1 '_Z6KernelP4NodePiPbS2_S2_S1_i'
GPGPU-Sim uArch: Shader 27 bind to kernel 1 '_Z6KernelP4NodePiPbS2_S2_S1_i'
GPGPU-Sim uArch: Shader 0 bind to kernel 1 '_Z6KernelP4NodePiPbS2_S2_S1_i'
GPGPU-Sim uArch: Shader 1 bind to kernel 1 '_Z6KernelP4NodePiPbS2_S2_S1_i'
GPGPU-Sim uArch: Shader 2 bind to kernel 1 '_Z6KernelP4NodePiPbS2_S2_S1_i'
GPGPU-Sim uArch: Shader 3 bind to kernel 1 '_Z6KernelP4NodePiPbS2_S2_S1_i'
GPGPU-Sim uArch: Shader 4 bind to kernel 1 '_Z6KernelP4NodePiPbS2_S2_S1_i'
GPGPU-Sim uArch: Shader 5 bind to kernel 1 '_Z6KernelP4NodePiPbS2_S2_S1_i'
GPGPU-Sim uArch: Shader 6 bind to kernel 1 '_Z6KernelP4NodePiPbS2_S2_S1_i'
GPGPU-Sim uArch: Shader 7 bind to kernel 1 '_Z6KernelP4NodePiPbS2_S2_S1_i'
GPGPU-Sim uArch: Shader 8 bind to kernel 1 '_Z6KernelP4NodePiPbS2_S2_S1_i'
GPGPU-Sim uArch: Shader 9 bind to kernel 1 '_Z6KernelP4NodePiPbS2_S2_S1_i'
GPGPU-Sim uArch: Shader 10 bind to kernel 1 '_Z6KernelP4NodePiPbS2_S2_S1_i'
GPGPU-Sim uArch: Shader 11 bind to kernel 1 '_Z6KernelP4NodePiPbS2_S2_S1_i'
GPGPU-Sim uArch: Shader 12 bind to kernel 1 '_Z6KernelP4NodePiPbS2_S2_S1_i'
GPGPU-Sim uArch: Shader 13 bind to kernel 1 '_Z6KernelP4NodePiPbS2_S2_S1_i'
GPGPU-Sim uArch: Shader 14 bind to kernel 1 '_Z6KernelP4NodePiPbS2_S2_S1_i'
GPGPU-Sim uArch: Shader 15 bind to kernel 1 '_Z6KernelP4NodePiPbS2_S2_S1_i'
GPGPU-Sim uArch: Shader 16 bind to kernel 1 '_Z6KernelP4NodePiPbS2_S2_S1_i'
GPGPU-Sim uArch: Shader 17 bind to kernel 1 '_Z6KernelP4NodePiPbS2_S2_S1_i'
GPGPU-Sim uArch: Shader 18 bind to kernel 1 '_Z6KernelP4NodePiPbS2_S2_S1_i'
GPGPU-Sim uArch: Shader 19 bind to kernel 1 '_Z6KernelP4NodePiPbS2_S2_S1_i'
GPGPU-Sim uArch: Shader 20 bind to kernel 1 '_Z6KernelP4NodePiPbS2_S2_S1_i'
GPGPU-Sim uArch: Shader 21 bind to kernel 1 '_Z6KernelP4NodePiPbS2_S2_S1_i'
GPGPU-Sim uArch: Shader 22 bind to kernel 1 '_Z6KernelP4NodePiPbS2_S2_S1_i'
GPGPU-Sim uArch: Shader 23 bind to kernel 1 '_Z6KernelP4NodePiPbS2_S2_S1_i'
GPGPU-Sim uArch: Shader 24 bind to kernel 1 '_Z6KernelP4NodePiPbS2_S2_S1_i'
GPGPU-Sim uArch: Shader 25 bind to kernel 1 '_Z6KernelP4NodePiPbS2_S2_S1_i'
GPGPU-Sim uArch: Shader 26 bind to kernel 1 '_Z6KernelP4NodePiPbS2_S2_S1_i'
GPGPU-Sim uArch: Shader 27 bind to kernel 1 '_Z6KernelP4NodePiPbS2_S2_S1_i'
GPGPU-Sim uArch: Shader 0 bind to kernel 1 '_Z6KernelP4NodePiPbS2_S2_S1_i'
Destroy streams for kernel 1: size 0

GPGPU-Sim PTX: cudaLaunch for 0x0x401649 (mode=performance simulation) on stream 0
kernel_name = _Z6KernelP4NodePiPbS2_S2_S1_i 
kernel_launch_uid = 1 
gpu_sim_cycle = 184798
gpu_sim_insn = 4970238
gpu_ipc =      26.8955
gpu_tot_sim_cycle = 409484
gpu_tot_sim_insn = 4970238
gpu_tot_ipc =      12.1378
gpu_tot_issued_cta = 511
max_total_param_size = 0
gpu_stall_dramfull = 87
gpu_stall_icnt2sh    = 5713
partiton_reqs_in_parallel = 4065469
partiton_reqs_in_parallel_total    = 0
partiton_level_parallism =      21.9995
partiton_level_parallism_total  =       9.9283
partiton_reqs_in_parallel_util = 4065469
partiton_reqs_in_parallel_util_total    = 0
gpu_sim_cycle_parition_util = 184798
gpu_tot_sim_cycle_parition_util    = 0
partiton_level_parallism_util =      21.9995
partiton_level_parallism_util_total  =      21.9995
partiton_replys_in_parallel = 8336
partiton_replys_in_parallel_total    = 0
L2_BW  =       4.2756 GB/Sec
L2_BW_total  =       1.9295 GB/Sec
gpu_total_sim_rate=28729

========= Core cache stats =========
L1I_cache:
	L1I_total_cache_accesses = 90013
	L1I_total_cache_misses = 2778
	L1I_total_cache_miss_rate = 0.0309
	L1I_total_cache_pending_hits = 0
	L1I_total_cache_reservation_fails = 6846
L1D_cache:
	L1D_cache_core[0]: Access = 0, Miss = 0, Miss_rate = -nan, Pending_hits = 0, Reservation_fails = 0
	L1D_cache_core[1]: Access = 0, Miss = 0, Miss_rate = -nan, Pending_hits = 0, Reservation_fails = 0
	L1D_cache_core[2]: Access = 0, Miss = 0, Miss_rate = -nan, Pending_hits = 0, Reservation_fails = 0
	L1D_cache_core[3]: Access = 0, Miss = 0, Miss_rate = -nan, Pending_hits = 0, Reservation_fails = 0
	L1D_cache_core[4]: Access = 0, Miss = 0, Miss_rate = -nan, Pending_hits = 0, Reservation_fails = 0
	L1D_cache_core[5]: Access = 0, Miss = 0, Miss_rate = -nan, Pending_hits = 0, Reservation_fails = 0
	L1D_cache_core[6]: Access = 0, Miss = 0, Miss_rate = -nan, Pending_hits = 0, Reservation_fails = 0
	L1D_cache_core[7]: Access = 0, Miss = 0, Miss_rate = -nan, Pending_hits = 0, Reservation_fails = 0
	L1D_cache_core[8]: Access = 0, Miss = 0, Miss_rate = -nan, Pending_hits = 0, Reservation_fails = 0
	L1D_cache_core[9]: Access = 0, Miss = 0, Miss_rate = -nan, Pending_hits = 0, Reservation_fails = 0
	L1D_cache_core[10]: Access = 0, Miss = 0, Miss_rate = -nan, Pending_hits = 0, Reservation_fails = 0
	L1D_cache_core[11]: Access = 0, Miss = 0, Miss_rate = -nan, Pending_hits = 0, Reservation_fails = 0
	L1D_cache_core[12]: Access = 0, Miss = 0, Miss_rate = -nan, Pending_hits = 0, Reservation_fails = 0
	L1D_cache_core[13]: Access = 0, Miss = 0, Miss_rate = -nan, Pending_hits = 0, Reservation_fails = 0
	L1D_cache_core[14]: Access = 0, Miss = 0, Miss_rate = -nan, Pending_hits = 0, Reservation_fails = 0
	L1D_cache_core[15]: Access = 0, Miss = 0, Miss_rate = -nan, Pending_hits = 0, Reservation_fails = 0
	L1D_cache_core[16]: Access = 0, Miss = 0, Miss_rate = -nan, Pending_hits = 0, Reservation_fails = 0
	L1D_cache_core[17]: Access = 0, Miss = 0, Miss_rate = -nan, Pending_hits = 0, Reservation_fails = 0
	L1D_cache_core[18]: Access = 0, Miss = 0, Miss_rate = -nan, Pending_hits = 0, Reservation_fails = 0
	L1D_cache_core[19]: Access = 0, Miss = 0, Miss_rate = -nan, Pending_hits = 0, Reservation_fails = 0
	L1D_cache_core[20]: Access = 0, Miss = 0, Miss_rate = -nan, Pending_hits = 0, Reservation_fails = 0
	L1D_cache_core[21]: Access = 0, Miss = 0, Miss_rate = -nan, Pending_hits = 0, Reservation_fails = 0
	L1D_cache_core[22]: Access = 0, Miss = 0, Miss_rate = -nan, Pending_hits = 0, Reservation_fails = 0
	L1D_cache_core[23]: Access = 0, Miss = 0, Miss_rate = -nan, Pending_hits = 0, Reservation_fails = 0
	L1D_cache_core[24]: Access = 0, Miss = 0, Miss_rate = -nan, Pending_hits = 0, Reservation_fails = 0
	L1D_cache_core[25]: Access = 0, Miss = 0, Miss_rate = -nan, Pending_hits = 0, Reservation_fails = 0
	L1D_cache_core[26]: Access = 0, Miss = 0, Miss_rate = -nan, Pending_hits = 0, Reservation_fails = 0
	L1D_cache_core[27]: Access = 0, Miss = 0, Miss_rate = -nan, Pending_hits = 0, Reservation_fails = 0
	L1D_total_cache_accesses = 0
	L1D_total_cache_misses = 0
	L1D_total_cache_pending_hits = 0
	L1D_total_cache_reservation_fails = 0
	L1D_cache_data_port_util = 0.000
	L1D_cache_fill_port_util = 0.000
L1C_cache:
	L1C_total_cache_accesses = 57232
	L1C_total_cache_misses = 1792
	L1C_total_cache_miss_rate = 0.0313
	L1C_total_cache_pending_hits = 0
	L1C_total_cache_reservation_fails = 4886
L1T_cache:
	L1T_total_cache_accesses = 0
GPGPU-Sim PTX: pushing kernel '_Z7Kernel2PbS_S_S_i' to stream 0, gridDim= (511,1,1) blockDim = (512,1,1) 
	L1T_total_cache_misses = 0
	L1T_total_cache_pending_hits = 0
	L1T_total_cache_reservation_fails = 0

Total_core_cache_stats:
	Total_core_cache_stats_breakdown[GLOBAL_ACC_R][HIT] = 0
	Total_core_cache_stats_breakdown[GLOBAL_ACC_R][HIT_RESERVED] = 0
	Total_core_cache_stats_breakdown[GLOBAL_ACC_R][MISS] = 0
	Total_core_cache_stats_breakdown[GLOBAL_ACC_R][RESERVATION_FAIL] = 0
	Total_core_cache_stats_breakdown[LOCAL_ACC_R][HIT] = 0
	Total_core_cache_stats_breakdown[LOCAL_ACC_R][HIT_RESERVED] = 0
	Total_core_cache_stats_breakdown[LOCAL_ACC_R][MISS] = 0
	Total_core_cache_stats_breakdown[LOCAL_ACC_R][RESERVATION_FAIL] = 0
	Total_core_cache_stats_breakdown[CONST_ACC_R][HIT] = 55440
	Total_core_cache_stats_breakdown[CONST_ACC_R][HIT_RESERVED] = 0
	Total_core_cache_stats_breakdown[CONST_ACC_R][MISS] = 1792
	Total_core_cache_stats_breakdown[CONST_ACC_R][RESERVATION_FAIL] = 4886
	Total_core_cache_stats_breakdown[TEXTURE_ACC_R][HIT] = 0
	Total_core_cache_stats_breakdown[TEXTURE_ACC_R][HIT_RESERVED] = 0
	Total_core_cache_stats_breakdown[TEXTURE_ACC_R][MISS] = 0
	Total_core_cache_stats_breakdown[TEXTURE_ACC_R][RESERVATION_FAIL] = 0
	Total_core_cache_stats_breakdown[GLOBAL_ACC_W][HIT] = 0
	Total_core_cache_stats_breakdown[GLOBAL_ACC_W][HIT_RESERVED] = 0
	Total_core_cache_stats_breakdown[GLOBAL_ACC_W][MISS] = 0
	Total_core_cache_stats_breakdown[GLOBAL_ACC_W][RESERVATION_FAIL] = 0
	Total_core_cache_stats_breakdown[LOCAL_ACC_W][HIT] = 0
	Total_core_cache_stats_breakdown[LOCAL_ACC_W][HIT_RESERVED] = 0
	Total_core_cache_stats_breakdown[LOCAL_ACC_W][MISS] = 0
	Total_core_cache_stats_breakdown[LOCAL_ACC_W][RESERVATION_FAIL] = 0
	Total_core_cache_stats_breakdown[L1_WRBK_ACC][HIT] = 0
	Total_core_cache_stats_breakdown[L1_WRBK_ACC][HIT_RESERVED] = 0
	Total_core_cache_stats_breakdown[L1_WRBK_ACC][MISS] = 0
	Total_core_cache_stats_breakdown[L1_WRBK_ACC][RESERVATION_FAIL] = 0
	Total_core_cache_stats_breakdown[L2_WRBK_ACC][HIT] = 0
	Total_core_cache_stats_breakdown[L2_WRBK_ACC][HIT_RESERVED] = 0
	Total_core_cache_stats_breakdown[L2_WRBK_ACC][MISS] = 0
	Total_core_cache_stats_breakdown[L2_WRBK_ACC][RESERVATION_FAIL] = 0
	Total_core_cache_stats_breakdown[INST_ACC_R][HIT] = 87235
	Total_core_cache_stats_breakdown[INST_ACC_R][HIT_RESERVED] = 0
	Total_core_cache_stats_breakdown[INST_ACC_R][MISS] = 2778
	Total_core_cache_stats_breakdown[INST_ACC_R][RESERVATION_FAIL] = 6846
	Total_core_cache_stats_breakdown[L1_WR_ALLOC_R][HIT] = 0
	Total_core_cache_stats_breakdown[L1_WR_ALLOC_R][HIT_RESERVED] = 0
	Total_core_cache_stats_breakdown[L1_WR_ALLOC_R][MISS] = 0
	Total_core_cache_stats_breakdown[L1_WR_ALLOC_R][RESERVATION_FAIL] = 0
	Total_core_cache_stats_breakdown[L2_WR_ALLOC_R][HIT] = 0
	Total_core_cache_stats_breakdown[L2_WR_ALLOC_R][HIT_RESERVED] = 0
	Total_core_cache_stats_breakdown[L2_WR_ALLOC_R][MISS] = 0
	Total_core_cache_stats_breakdown[L2_WR_ALLOC_R][RESERVATION_FAIL] = 0
	Total_core_cache_stats_breakdown[CONST_ACC_R][TOTAL_ACCESS] = 57232
	Total_core_cache_stats_breakdown[INST_ACC_R][TOTAL_ACCESS] = 90013
Shader 0 warp_id issue ditsribution:
warp_id:
0, 1, 2, 3, 4, 5, 6, 7, 8, 9, 10, 11, 12, 13, 14, 15, 16, 17, 18, 19, 20, 21, 22, 23, 24, 25, 26, 27, 28, 29, 30, 31, 32, 33, 34, 35, 36, 37, 38, 39, 40, 41, 42, 43, 44, 45, 46, 47, 48, 49, 50, 51, 52, 53, 54, 55, 56, 57, 58, 59, 60, 61, 62, 63, 
distro:
115, 115, 114, 115, 114, 115, 114, 115, 115, 115, 115, 115, 115, 115, 115, 115, 115, 115, 115, 115, 115, 115, 115, 115, 115, 115, 115, 115, 115, 115, 115, 115, 115, 115, 115, 115, 115, 115, 115, 115, 115, 115, 115, 115, 115, 115, 115, 115, 92, 92, 92, 92, 92, 92, 92, 92, 92, 92, 92, 92, 92, 92, 92, 92, 
gpgpu_n_tot_thrd_icount = 5237440
gpgpu_n_tot_w_icount = 163670
gpgpu_n_stall_shd_mem = 5731
gpgpu_n_mem_read_local = 0
gpgpu_n_mem_write_local = 0
gpgpu_n_mem_read_global = 8208
gpgpu_n_mem_write_global = 15
gpgpu_n_mem_texture = 0
gpgpu_n_mem_const = 28
gpgpu_n_load_insn  = 261481
gpgpu_n_store_insn = 15
gpgpu_n_shmem_insn = 0
gpgpu_n_tex_insn = 0
gpgpu_n_const_mem_insn = 0
gpgpu_n_param_mem_insn = 1831424
gpgpu_n_shmem_bkconflict = 0
gpgpu_n_cache_bkconflict = 0
gpgpu_n_intrawarp_mshr_merge = 0
gpgpu_n_cmem_portconflict = 4886
gpgpu_stall_shd_mem[c_mem][bk_conf] = 4886
gpgpu_stall_shd_mem[c_mem][mshr_rc] = 0
gpgpu_stall_shd_mem[c_mem][icnt_rc] = 0
gpgpu_stall_shd_mem[c_mem][data_port_stall] = 0
gpgpu_stall_shd_mem[t_mem][mshr_rc] = 0
gpgpu_stall_shd_mem[t_mem][icnt_rc] = 0
gpgpu_stall_shd_mem[t_mem][data_port_stall] = 0
gpgpu_stall_shd_mem[s_mem][bk_conf] = 0
gpgpu_stall_shd_mem[gl_mem][bk_conf] = 0
gpgpu_stall_shd_mem[gl_mem][coal_stall] = 0
gpgpu_stall_shd_mem[gl_mem][data_port_stall] = 0
gpgpu_stall_shd_mem[g_mem_ld][mshr_rc] = 0
gpgpu_stall_shd_mem[g_mem_ld][icnt_rc] = 845
gpgpu_stall_shd_mem[g_mem_ld][wb_icnt_rc] = 0
gpgpu_stall_shd_mem[g_mem_ld][wb_rsrv_fail] = 0
gpgpu_stall_shd_mem[g_mem_st][mshr_rc] = 0
gpgpu_stall_shd_mem[g_mem_st][icnt_rc] = 0
gpgpu_stall_shd_mem[g_mem_st][wb_icnt_rc] = 0
gpgpu_stall_shd_mem[g_mem_st][wb_rsrv_fail] = 0
gpgpu_stall_shd_mem[l_mem_ld][mshr_rc] = 0
gpgpu_stall_shd_mem[l_mem_ld][icnt_rc] = 0
gpgpu_stall_shd_mem[l_mem_ld][wb_icnt_rc] = 0
gpgpu_stall_shd_mem[l_mem_ld][wb_rsrv_fail] = 0
gpgpu_stall_shd_mem[l_mem_st][mshr_rc] = 0
gpgpu_stall_shd_mem[l_mem_st][icnt_rc] = 0
gpgpu_stall_shd_mem[l_mem_ld][wb_icnt_rc] = 0
gpgpu_stall_shd_mem[l_mem_ld][wb_rsrv_fail] = 0
gpu_reg_bank_conflict_stalls = 0
Warp Occupancy Distribution:
Stall:33925	W0_Idle:7738305	W0_Scoreboard:2430278	W1:180	W2:0	W3:0	W4:6	W5:0	W6:0	W7:0	W8:0	W9:0	W10:0	W11:0	W12:0	W13:0	W14:0	W15:0	W16:0	W17:0	W18:0	W19:0	W20:0	W21:0	W22:0	W23:0	W24:0	W25:0	W26:0	W27:0	W28:0	W29:0	W30:0	W31:0	W32:163484
traffic_breakdown_coretomem[CONST_ACC_R] = 224 {8:28,}
traffic_breakdown_coretomem[GLOBAL_ACC_R] = 65664 {8:8208,}
traffic_breakdown_coretomem[GLOBAL_ACC_W] = 600 {40:15,}
traffic_breakdown_coretomem[INST_ACC_R] = 680 {8:85,}
traffic_breakdown_memtocore[CONST_ACC_R] = 2016 {72:28,}
traffic_breakdown_memtocore[GLOBAL_ACC_R] = 328320 {40:8208,}
traffic_breakdown_memtocore[GLOBAL_ACC_W] = 120 {8:15,}
traffic_breakdown_memtocore[INST_ACC_R] = 11560 {136:85,}
maxmrqlatency = 83 
maxdqlatency = 0 
maxmflatency = 32067 
averagemflatency = 7389 
max_icnt2mem_latency = 31815 
max_icnt2sh_latency = 367098 
mrq_lat_table:983 	145 	158 	258 	208 	283 	49 	0 	0 	0 	0 	0 	0 	0 	0 	0 	0 	0 	0 	0 	0 	0 	0 	0 	0 	0 	0 	0 	0 	0 	0 	0 	
dq_lat_table:0 	0 	0 	0 	0 	0 	0 	0 	0 	0 	0 	0 	0 	0 	0 	0 	0 	0 	0 	0 	0 	0 	0 	0 	0 	0 	0 	0 	0 	0 	0 	0 	
mf_lat_table:0 	0 	0 	0 	0 	0 	0 	1042 	2426 	0 	0 	896 	128 	2567 	1192 	0 	0 	0 	0 	0 	0 	0 	0 	0 	0 	0 	0 	0 	0 	0 	0 	0 	
icnt2mem_lat_table:0 	0 	1116 	29 	24 	0 	2384 	0 	0 	0 	0 	896 	128 	2567 	1192 	0 	0 	0 	0 	0 	0 	0 	0 	0 	
icnt2sh_lat_table:0 	0 	3274 	3543 	1400 	19 	0 	0 	0 	0 	0 	0 	0 	0 	0 	0 	0 	1 	14 	0 	0 	0 	0 	0 	
mf_lat_pw_table:0 	0 	0 	0 	0 	0 	0 	9 	3 	0 	0 	5 	2 	11 	6 	0 	0 	0 	0 	0 	0 	0 	0 	0 	0 	0 	0 	0 	0 	0 	0 	0 	
maximum concurrent accesses to same row:
dram[0]:         1         0         0         0         0         0         0         0         0        10         0         0         2         0         0         0 
dram[1]:         0         0         0         0         0         1         0         0         0         0        11         0         0         0         0         2 
dram[2]:         0         0         1         0         0         0         0         0         0        10         0         0         0         0         0         0 
dram[3]:         0         0         1         0         0         0         0         0         0         0         0        10         0         0         0         0 
dram[4]:         1         0         0         0         0         0         0         0         0         0         0         0         0         0         1         1 
dram[5]:         0         0         0         0         0         0         0         0         0         0         0         0         0         0         1         1 
dram[6]:         0         0         0         0         0         0         0         0         0         0         0         0         2         0         0         0 
dram[7]:         0         0         1         0         0         0         0         0         0         0         0         0         0         0         0         0 
dram[8]:         0         0         0         0         2         0         0         0         0         0         0         0         0         0         0         0 
dram[9]:         0         0         1         0         0         0         0         0         0         0         0         0         0         0         0         0 
dram[10]:         0         0         0         0         0         0         0         0        11         0         0         0         2         0         0         0 
maximum service time to same row:
dram[0]:    147751    183498    184262    184267    184656    184659         0         0      4581    137814     11447     11452     96084    164844    165058    165044 
dram[1]:    183502    183504    184159    184158    184672    114810     65670         0      4580      4581    126954     11459    164840    164843    165053    101055 
dram[2]:    183501    183504    136746    184047    184709    184714         0         0      4580     76138     11447     11452    164840    164844    165031    165044 
dram[3]:    183492    183495    137468    184063     82115    184714         0         0      4580      4584     11455     80736    164840    164843    165032    165045 
dram[4]:    101913    183499    184058    184061    184663    184670         0         0      4580      4584     11447     11452    164840    164844    164803    164255 
dram[5]:    183501    183504    184065    184077    184646    184652         0         0      4580      4584     11455     11459    164840    164843    150713    160206 
dram[6]:    183490    183492    184124    184152    184653    184668     82972         0      4580      4584     11447     11452     88762    164844    165056    165044 
dram[7]:    183495    183499    101768    184209    184694    184730         0         0      4580      4584     11455     11459    164840    164843    165038    165044 
dram[8]:    183492    183496    184108    184123    102622    184728     65672         0      4580      4584     11475     11479    164840    164844    165031    165044 
dram[9]:    183500    183504    135990    184165    184730    184735         0         0      4580      4584     11470     11473    164840    164843    165032    165044 
dram[10]:    183500    183504    184265    184269     57430    184683         0         0    125355      4582     11468     11472     82958    164844    165038    165044 
average row accesses per activate:
dram[0]:  9.000000 16.000000 16.000000 16.000000  3.000000  3.000000      -nan      -nan 10.000000  6.000000 16.000000 16.000000  9.000000 16.000000 16.000000 16.000000 
dram[1]: 16.000000 16.000000 16.000000 16.000000  3.000000  2.000000  2.000000      -nan 10.000000 10.000000  4.500000 16.000000 16.000000 16.000000 16.000000  9.000000 
dram[2]: 16.000000 16.000000  8.500000 16.000000  3.000000  3.000000      -nan      -nan 10.000000  5.500000 16.000000 16.000000 16.000000 16.000000 16.000000 16.000000 
dram[3]: 16.000000 16.000000  8.500000 16.000000  5.000000  3.000000      -nan      -nan 10.000000 10.000000 16.000000  6.000000 16.000000 16.000000 16.000000 16.000000 
dram[4]:  8.500000 16.000000 16.000000 16.000000  3.000000  3.000000      -nan      -nan 10.000000 10.000000 16.000000 16.000000 16.000000 16.000000  8.500000  8.500000 
dram[5]: 16.000000 16.000000 16.000000 16.000000  3.000000  3.000000      -nan      -nan 10.000000 10.000000 16.000000 16.000000 16.000000 16.000000  8.500000  8.500000 
dram[6]: 16.000000 16.000000 16.000000 16.000000  3.000000  3.000000  2.000000      -nan 10.000000 10.000000 16.000000 16.000000  9.000000 16.000000 16.000000 16.000000 
dram[7]: 16.000000 16.000000  8.500000 16.000000  3.000000  2.000000      -nan      -nan 10.000000 10.000000 16.000000 16.000000 16.000000 16.000000 16.000000 16.000000 
dram[8]: 16.000000 16.000000 16.000000 16.000000  2.000000  2.000000  2.000000      -nan 10.000000 10.000000 16.000000 16.000000 16.000000 16.000000 16.000000 16.000000 
dram[9]: 16.000000 16.000000  8.500000 16.000000  2.000000  2.000000      -nan      -nan 11.000000 11.000000 16.000000 16.000000 16.000000 16.000000 16.000000 16.000000 
dram[10]: 16.000000 16.000000 16.000000 16.000000  4.000000  2.000000      -nan      -nan  6.500000 11.000000 16.000000 16.000000  9.000000 16.000000 16.000000 16.000000 
average row locality = 2084/181 = 11.513812
number of total memory accesses made:
dram[0]:         0         0         0         0         0         0         0         0         0         0         0         0         0         0         0         0 
dram[1]:         0         0         0         0         0         0         0         0         0         0         0         0         0         0         0         0 
dram[2]:         0         0         0         0         0         0         0         0         0         0         0         0         0         0         0         0 
dram[3]:         0         0         0         0         0         0         0         0         0         0         0         0         0         0         0         0 
dram[4]:         0         0         0         0         0         0         0         0         0         0         0         0         0         0         0         0 
dram[5]:         0         0         0         0         0         0         0         0         0         0         0         0         0         0         0         0 
dram[6]:         0         0         0         0         0         0         0         0         0         0         0         0         0         0         0         0 
dram[7]:         0         0         0         0         0         0         0         0         0         0         0         0         0         0         0         0 
dram[8]:         0         0         0         0         0         0         0         0         0         0         0         0         0         0         0         0 
dram[9]:         0         0         0         0         0         0         0         0         0         0         0         0         0         0         0         0 
dram[10]:         0         0         0         0         0         0         0         0         0         0         0         0         0         0         0         0 
total accesses: 0
min_bank_accesses = 0!
min_chip_accesses = 0!
number of total read accesses:
dram[0]:        18        16        16        16         3         3         0         0        10        11        16        16        17        16        16        16 
dram[1]:        16        16        16        16         3         4         1         0        10        10        18        16        16        16        16        17 
dram[2]:        16        16        17        16         3         3         0         0        10        11        16        16        16        16        16        16 
dram[3]:        16        16        17        16         4         3         0         0        10        10        16        17        16        16        16        16 
dram[4]:        17        16        16        16         3         3         0         0        10        10        16        16        16        16        17        17 
dram[5]:        16        16        16        16         3         3         0         0        10        10        16        16        16        16        17        17 
dram[6]:        16        16        16        16         3         3         1         0        10        10        16        16        17        16        16        16 
dram[7]:        16        16        17        16         3         2         0         0        10        10        16        16        16        16        16        16 
dram[8]:        16        16        16        16         3         2         1         0        10        10        16        16        16        16        16        16 
dram[9]:        16        16        17        16         2         2         0         0        11        11        16        16        16        16        16        16 
dram[10]:        16        16        16        16         3         2         0         0        12        11        16        16        17        16        16        16 
total reads: 2071
min_bank_accesses = 0!
chip skew: 191/186 = 1.03
number of total write accesses:
dram[0]:         0         0         0         0         0         0         0         0         0         1         0         0         1         0         0         0 
dram[1]:         0         0         0         0         0         0         1         0         0         0         0         0         0         0         0         1 
dram[2]:         0         0         0         0         0         0         0         0         0         0         0         0         0         0         0         0 
dram[3]:         0         0         0         0         1         0         0         0         0         0         0         1         0         0         0         0 
dram[4]:         0         0         0         0         0         0         0         0         0         0         0         0         0         0         0         0 
dram[5]:         0         0         0         0         0         0         0         0         0         0         0         0         0         0         0         0 
dram[6]:         0         0         0         0         0         0         1         0         0         0         0         0         1         0         0         0 
dram[7]:         0         0         0         0         0         0         0         0         0         0         0         0         0         0         0         0 
dram[8]:         0         0         0         0         1         0         1         0         0         0         0         0         0         0         0         0 
dram[9]:         0         0         0         0         0         0         0         0         0         0         0         0         0         0         0         0 
dram[10]:         0         0         0         0         1         0         0         0         1         0         0         0         1         0         0         0 
total reads: 13
min_bank_accesses = 0!
min_chip_accesses = 0!
average mf latency per bank:
dram[0]:      21825     23414      1185      1153      1202      1160    none      none       25935     23921     31411     31468     45104     49521     38979     38966
dram[1]:      23443     23395      1171      1119      1169      8885      9089    none       25930     26005     29729     32077     49363     49476     38959     35730
dram[2]:      23415     23382      1099      1100      1258      1255    none      none       25928     26534     29428     29483     49335     49438     38862     38851
dram[3]:      23432     23388      1776      1107       802      1217    none      none       25939     25987     29441     26833     49324     49425     42670     42702
dram[4]:      22059     23396      1156      1124      1242      1183    none      none       25920     25971     29420     29464     49324     49402     40833     40830
dram[5]:      23410     23371      1156      1136      1191      1133    none      none       25917     25979     29420     29475     49268     49398     40787     40806
dram[6]:      23430     23380      1159      1141      1213      1178       170    none       25901     25970     30053     30098     42576     46207     43364     43361
dram[7]:      23434     23413      1144      1156      1135      1217    none      none       28645     28708     30075     30127     46107     46193     43349     43339
dram[8]:      18981     18983      1106      1081       731      1200      8662    none       28665     28754     30088     30126     46088     46189     43399     43378
dram[9]:      19004     18969      1082      1086      1275      1247    none      none       27488     27531     30085     30126     46079     46175     43375     43364
dram[10]:      18984     18934      1165      1136      3297      1162    none      none       24364     27509     30080     30130     41016     46287     43386     43381
maximum mf latency per bank:
dram[0]:      18192     18205       356       368       353       354         0         0     10608     27397     10680     10723     21279     13337     18334     18365
dram[1]:      18152     18163       360       364       352     31869     18179         0     10616     10630     10647     10689     13300     13318     18301     20137
dram[2]:      18149     18175       369       363       359       372         0         0     10607     32067     10648     10682     13306     13318     18268     18283
dram[3]:      18164     18198     10825       371       360       362         0         0     10612     10627     10645     11297     13300     13310     18309     18339
dram[4]:      18159     18181       365       371       352       355         0         0     10603     10616     10657     10691     13300     13301     18277     18308
dram[5]:      18169     18189       355       360       353       352         0         0     10607     10623     10640     10678     13300     13310     18268     18300
dram[6]:      18170     18183       360       373       352       350       341         0     10601     10618     10644     10682     27745     13322     18274     18306
dram[7]:      18158     18197       363       367       352       353         0         0     10616     10646     10643     10679     13300     13316     18256     18268
dram[8]:      18166     18213       365       366       362       352     17325         0     10633     10673     10670     10703     13300     13301     18291     18242
dram[9]:      18177     18204       352       359       363       366         0         0     10643     10643     10680     10705     13300     13316     18328     18353
dram[10]:      18175     18207       357       364     10795       367         0         0     14952     10662     10672     10706     13310     13326     18338     18369
Memory Partition 0: 
Cache L2_bank_000:
MSHR contents

Cache L2_bank_001:
MSHR contents

In Dram Latency Queue (total = 0): 
DRAM[0]: 16 bks, busW=4 BL=8 CL=12, tRRD=2 tCCD=6, tRCD=12 tRAS=28 tRP=12 tRC=40
n_cmd=343141 n_nop=342357 n_act=18 n_pre=4 n_req=192 n_rd=760 n_write=2 bw_util=0.004441
n_activity=2182 dram_eff=0.6984
bk0: 72a 342892i bk1: 64a 342893i bk2: 64a 343009i bk3: 64a 342961i bk4: 12a 343105i bk5: 12a 343103i bk6: 0a 343142i bk7: 0a 343146i bk8: 40a 343048i bk9: 44a 342946i bk10: 64a 342950i bk11: 64a 342854i bk12: 68a 342962i bk13: 64a 342881i bk14: 64a 342994i bk15: 64a 342886i 
dram_util_bins: 0 0 0 0 0 0 0 0 0 0
dram_eff_bins: 0 0 0 0 0 0 0 0 0 0
mrqq: max=15 avg=0.0145684
Memory Partition 1: 
Cache L2_bank_002:
MSHR contents

Cache L2_bank_003:
MSHR contents

In Dram Latency Queue (total = 0): 
DRAM[1]: 16 bks, busW=4 BL=8 CL=12, tRRD=2 tCCD=6, tRCD=12 tRAS=28 tRP=12 tRC=40
n_cmd=343141 n_nop=342350 n_act=20 n_pre=5 n_req=193 n_rd=764 n_write=2 bw_util=0.004465
n_activity=2195 dram_eff=0.6979
bk0: 64a 342959i bk1: 64a 342912i bk2: 64a 343000i bk3: 64a 342974i bk4: 12a 343107i bk5: 16a 343073i bk6: 4a 343115i bk7: 0a 343142i bk8: 40a 343052i bk9: 40a 342980i bk10: 72a 342887i bk11: 64a 342858i bk12: 64a 342997i bk13: 64a 342889i bk14: 64a 342997i bk15: 68a 342862i 
dram_util_bins: 0 0 0 0 0 0 0 0 0 0
dram_eff_bins: 0 0 0 0 0 0 0 0 0 0
mrqq: max=14 avg=0.0124905
Memory Partition 2: 
Cache L2_bank_004:
MSHR contents

Cache L2_bank_005:
MSHR contents

In Dram Latency Queue (total = 0): 
DRAM[2]: 16 bks, busW=4 BL=8 CL=12, tRRD=2 tCCD=6, tRCD=12 tRAS=28 tRP=12 tRC=40
n_cmd=343141 n_nop=342371 n_act=16 n_pre=2 n_req=188 n_rd=752 n_write=0 bw_util=0.004383
n_activity=2034 dram_eff=0.7394
bk0: 64a 342962i bk1: 64a 342913i bk2: 68a 342935i bk3: 64a 342966i bk4: 12a 343106i bk5: 12a 343090i bk6: 0a 343141i bk7: 0a 343143i bk8: 40a 343052i bk9: 44a 342950i bk10: 64a 342952i bk11: 64a 342860i bk12: 64a 342997i bk13: 64a 342889i bk14: 64a 343005i bk15: 64a 342914i 
dram_util_bins: 0 0 0 0 0 0 0 0 0 0
dram_eff_bins: 0 0 0 0 0 0 0 0 0 0
mrqq: max=13 avg=0.0113831
Memory Partition 3: 
Cache L2_bank_006:
MSHR contents

Cache L2_bank_007:
MSHR contents

In Dram Latency Queue (total = 0): 
DRAM[3]: 16 bks, busW=4 BL=8 CL=12, tRRD=2 tCCD=6, tRCD=12 tRAS=28 tRP=12 tRC=40
n_cmd=343141 n_nop=342363 n_act=17 n_pre=3 n_req=191 n_rd=756 n_write=2 bw_util=0.004418
n_activity=2083 dram_eff=0.7278
bk0: 64a 342927i bk1: 64a 342888i bk2: 68a 342974i bk3: 64a 342969i bk4: 16a 343094i bk5: 12a 343099i bk6: 0a 343142i bk7: 0a 343143i bk8: 40a 343053i bk9: 40a 342984i bk10: 64a 342975i bk11: 68a 342820i bk12: 64a 342992i bk13: 64a 342885i bk14: 64a 342985i bk15: 64a 342905i 
dram_util_bins: 0 0 0 0 0 0 0 0 0 0
dram_eff_bins: 0 0 0 0 0 0 0 0 0 0
mrqq: max=12 avg=0.0127236
Memory Partition 4: 
Cache L2_bank_008:
MSHR contents

Cache L2_bank_009:
MSHR contents

In Dram Latency Queue (total = 0): 
DRAM[4]: 16 bks, busW=4 BL=8 CL=12, tRRD=2 tCCD=6, tRCD=12 tRAS=28 tRP=12 tRC=40
n_cmd=343141 n_nop=342365 n_act=17 n_pre=3 n_req=189 n_rd=756 n_write=0 bw_util=0.004406
n_activity=2098 dram_eff=0.7207
bk0: 68a 342916i bk1: 64a 342892i bk2: 64a 343010i bk3: 64a 342959i bk4: 12a 343107i bk5: 12a 343104i bk6: 0a 343142i bk7: 0a 343142i bk8: 40a 343051i bk9: 40a 342985i bk10: 64a 342956i bk11: 64a 342853i bk12: 64a 342995i bk13: 64a 342889i bk14: 68a 342952i bk15: 68a 342862i 
dram_util_bins: 0 0 0 0 0 0 0 0 0 0
dram_eff_bins: 0 0 0 0 0 0 0 0 0 0
mrqq: max=14 avg=0.0126916
Memory Partition 5: 
Cache L2_bank_010:
MSHR contents

Cache L2_bank_011:
MSHR contents

In Dram Latency Queue (total = 0): 
DRAM[5]: 16 bks, busW=4 BL=8 CL=12, tRRD=2 tCCD=6, tRCD=12 tRAS=28 tRP=12 tRC=40
n_cmd=343141 n_nop=342371 n_act=16 n_pre=2 n_req=188 n_rd=752 n_write=0 bw_util=0.004383
n_activity=2054 dram_eff=0.7322
bk0: 64a 342942i bk1: 64a 342893i bk2: 64a 343007i bk3: 64a 342970i bk4: 12a 343106i bk5: 12a 343108i bk6: 0a 343142i bk7: 0a 343142i bk8: 40a 343050i bk9: 40a 342981i bk10: 64a 342964i bk11: 64a 342870i bk12: 64a 343005i bk13: 64a 342890i bk14: 68a 342961i bk15: 68a 342872i 
dram_util_bins: 0 0 0 0 0 0 0 0 0 0
dram_eff_bins: 0 0 0 0 0 0 0 0 0 0
mrqq: max=12 avg=0.0118785
Memory Partition 6: 
Cache L2_bank_012:
MSHR contents

Cache L2_bank_013:
MSHR contents

In Dram Latency Queue (total = 0): 
DRAM[6]: 16 bks, busW=4 BL=8 CL=12, tRRD=2 tCCD=6, tRCD=12 tRAS=28 tRP=12 tRC=40
n_cmd=343141 n_nop=342370 n_act=16 n_pre=1 n_req=190 n_rd=752 n_write=2 bw_util=0.004395
n_activity=2036 dram_eff=0.7407
bk0: 64a 342925i bk1: 64a 342877i bk2: 64a 342986i bk3: 64a 342938i bk4: 12a 343105i bk5: 12a 343105i bk6: 4a 343117i bk7: 0a 343142i bk8: 40a 343053i bk9: 40a 342988i bk10: 64a 342950i bk11: 64a 342854i bk12: 68a 342962i bk13: 64a 342887i bk14: 64a 342990i bk15: 64a 342858i 
dram_util_bins: 0 0 0 0 0 0 0 0 0 0
dram_eff_bins: 0 0 0 0 0 0 0 0 0 0
mrqq: max=13 avg=0.0134435
Memory Partition 7: 
Cache L2_bank_014:
MSHR contents

Cache L2_bank_015:
MSHR contents

In Dram Latency Queue (total = 0): 
DRAM[7]: 16 bks, busW=4 BL=8 CL=12, tRRD=2 tCCD=6, tRCD=12 tRAS=28 tRP=12 tRC=40
n_cmd=343141 n_nop=342381 n_act=15 n_pre=1 n_req=186 n_rd=744 n_write=0 bw_util=0.004336
n_activity=1962 dram_eff=0.7584
bk0: 64a 342936i bk1: 64a 342884i bk2: 68a 342976i bk3: 64a 342942i bk4: 12a 343106i bk5: 8a 343112i bk6: 0a 343138i bk7: 0a 343139i bk8: 40a 343050i bk9: 40a 342979i bk10: 64a 342951i bk11: 64a 342856i bk12: 64a 343006i bk13: 64a 342898i bk14: 64a 342996i bk15: 64a 342898i 
dram_util_bins: 0 0 0 0 0 0 0 0 0 0
dram_eff_bins: 0 0 0 0 0 0 0 0 0 0
mrqq: max=12 avg=0.0131753
Memory Partition 8: 
Cache L2_bank_016:
MSHR contents

Cache L2_bank_017:
MSHR contents

In Dram Latency Queue (total = 0): 
DRAM[8]: 16 bks, busW=4 BL=8 CL=12, tRRD=2 tCCD=6, tRCD=12 tRAS=28 tRP=12 tRC=40
n_cmd=343141 n_nop=342378 n_act=16 n_pre=1 n_req=188 n_rd=744 n_write=2 bw_util=0.004348
n_activity=1998 dram_eff=0.7467
bk0: 64a 342927i bk1: 64a 342877i bk2: 64a 343001i bk3: 64a 342962i bk4: 12a 343071i bk5: 8a 343106i bk6: 4a 343114i bk7: 0a 343140i bk8: 40a 343050i bk9: 40a 342981i bk10: 64a 342994i bk11: 64a 342890i bk12: 64a 342996i bk13: 64a 342900i bk14: 64a 342990i bk15: 64a 342888i 
dram_util_bins: 0 0 0 0 0 0 0 0 0 0
dram_eff_bins: 0 0 0 0 0 0 0 0 0 0
mrqq: max=12 avg=0.0128402
Memory Partition 9: 
Cache L2_bank_018:
MSHR contents

Cache L2_bank_019:
MSHR contents

In Dram Latency Queue (total = 0): 
DRAM[9]: 16 bks, busW=4 BL=8 CL=12, tRRD=2 tCCD=6, tRCD=12 tRAS=28 tRP=12 tRC=40
n_cmd=343141 n_nop=342377 n_act=15 n_pre=1 n_req=187 n_rd=748 n_write=0 bw_util=0.00436
n_activity=2001 dram_eff=0.7476
bk0: 64a 342942i bk1: 64a 342890i bk2: 68a 342983i bk3: 64a 342969i bk4: 8a 343113i bk5: 8a 343105i bk6: 0a 343140i bk7: 0a 343141i bk8: 44a 343035i bk9: 44a 342967i bk10: 64a 342980i bk11: 64a 342882i bk12: 64a 343006i bk13: 64a 342898i bk14: 64a 343004i bk15: 64a 342909i 
dram_util_bins: 0 0 0 0 0 0 0 0 0 0
dram_eff_bins: 0 0 0 0 0 0 0 0 0 0
mrqq: max=13 avg=0.0116133
Memory Partition 10: 
Cache L2_bank_020:
MSHR contents

Cache L2_bank_021:
MSHR contents

In Dram Latency Queue (total = 0): 
DRAM[10]: 16 bks, busW=4 BL=8 CL=12, tRRD=2 tCCD=6, tRCD=12 tRAS=28 tRP=12 tRC=40
n_cmd=343141 n_nop=342364 n_act=16 n_pre=2 n_req=192 n_rd=756 n_write=3 bw_util=0.004424
n_activity=2063 dram_eff=0.7358
bk0: 64a 342944i bk1: 64a 342919i bk2: 64a 343011i bk3: 64a 342969i bk4: 12a 343102i bk5: 8a 343102i bk6: 0a 343139i bk7: 0a 343142i bk8: 48a 343000i bk9: 44a 342965i bk10: 64a 342981i bk11: 64a 342877i bk12: 68a 342961i bk13: 64a 342890i bk14: 64a 342989i bk15: 64a 342899i 
dram_util_bins: 0 0 0 0 0 0 0 0 0 0
dram_eff_bins: 0 0 0 0 0 0 0 0 0 0
mrqq: max=13 avg=0.0125021

========= L2 cache stats =========
L2_cache_bank[0]: Access = 402, Miss = 96, Miss_rate = 0.239, Pending_hits = 305, Reservation_fails = 0
L2_cache_bank[1]: Access = 373, Miss = 94, Miss_rate = 0.252, Pending_hits = 275, Reservation_fails = 0
L2_cache_bank[2]: Access = 396, Miss = 96, Miss_rate = 0.242, Pending_hits = 279, Reservation_fails = 0
L2_cache_bank[3]: Access = 374, Miss = 95, Miss_rate = 0.254, Pending_hits = 275, Reservation_fails = 0
L2_cache_bank[4]: Access = 373, Miss = 94, Miss_rate = 0.252, Pending_hits = 277, Reservation_fails = 0
L2_cache_bank[5]: Access = 373, Miss = 94, Miss_rate = 0.252, Pending_hits = 273, Reservation_fails = 0
L2_cache_bank[6]: Access = 381, Miss = 95, Miss_rate = 0.249, Pending_hits = 277, Reservation_fails = 0
L2_cache_bank[7]: Access = 373, Miss = 94, Miss_rate = 0.252, Pending_hits = 273, Reservation_fails = 0
L2_cache_bank[8]: Access = 401, Miss = 95, Miss_rate = 0.237, Pending_hits = 304, Reservation_fails = 0
L2_cache_bank[9]: Access = 400, Miss = 94, Miss_rate = 0.235, Pending_hits = 301, Reservation_fails = 0
L2_cache_bank[10]: Access = 373, Miss = 94, Miss_rate = 0.252, Pending_hits = 279, Reservation_fails = 0
L2_cache_bank[11]: Access = 400, Miss = 94, Miss_rate = 0.235, Pending_hits = 303, Reservation_fails = 0
L2_cache_bank[12]: Access = 374, Miss = 95, Miss_rate = 0.254, Pending_hits = 274, Reservation_fails = 0
L2_cache_bank[13]: Access = 372, Miss = 93, Miss_rate = 0.250, Pending_hits = 273, Reservation_fails = 0
L2_cache_bank[14]: Access = 372, Miss = 94, Miss_rate = 0.253, Pending_hits = 278, Reservation_fails = 0
L2_cache_bank[15]: Access = 368, Miss = 92, Miss_rate = 0.250, Pending_hits = 274, Reservation_fails = 0
L2_cache_bank[16]: Access = 370, Miss = 94, Miss_rate = 0.254, Pending_hits = 272, Reservation_fails = 0
L2_cache_bank[17]: Access = 368, Miss = 92, Miss_rate = 0.250, Pending_hits = 269, Reservation_fails = 0
L2_cache_bank[18]: Access = 374, Miss = 94, Miss_rate = 0.251, Pending_hits = 277, Reservation_fails = 0
L2_cache_bank[19]: Access = 372, Miss = 93, Miss_rate = 0.250, Pending_hits = 273, Reservation_fails = 0
L2_cache_bank[20]: Access = 375, Miss = 96, Miss_rate = 0.256, Pending_hits = 277, Reservation_fails = 0
L2_cache_bank[21]: Access = 372, Miss = 93, Miss_rate = 0.250, Pending_hits = 276, Reservation_fails = 0
L2_total_cache_accesses = 8336
L2_total_cache_misses = 2071
L2_total_cache_miss_rate = 0.2484
L2_total_cache_pending_hits = 6164
L2_total_cache_reservation_fails = 0
L2_total_cache_breakdown:
	L2_cache_stats_breakdown[GLOBAL_ACC_R][HIT] = 99
	L2_cache_stats_breakdown[GLOBAL_ACC_R][HIT_RESERVED] = 6056
	L2_cache_stats_breakdown[GLOBAL_ACC_R][MISS] = 2053
	L2_cache_stats_breakdown[GLOBAL_ACC_R][RESERVATION_FAIL] = 0
	L2_cache_stats_breakdown[LOCAL_ACC_R][HIT] = 0
	L2_cache_stats_breakdown[LOCAL_ACC_R][HIT_RESERVED] = 0
	L2_cache_stats_breakdown[LOCAL_ACC_R][MISS] = 0
	L2_cache_stats_breakdown[LOCAL_ACC_R][RESERVATION_FAIL] = 0
	L2_cache_stats_breakdown[CONST_ACC_R][HIT] = 0
	L2_cache_stats_breakdown[CONST_ACC_R][HIT_RESERVED] = 27
	L2_cache_stats_breakdown[CONST_ACC_R][MISS] = 1
	L2_cache_stats_breakdown[CONST_ACC_R][RESERVATION_FAIL] = 0
	L2_cache_stats_breakdown[TEXTURE_ACC_R][HIT] = 0
	L2_cache_stats_breakdown[TEXTURE_ACC_R][HIT_RESERVED] = 0
	L2_cache_stats_breakdown[TEXTURE_ACC_R][MISS] = 0
	L2_cache_stats_breakdown[TEXTURE_ACC_R][RESERVATION_FAIL] = 0
	L2_cache_stats_breakdown[GLOBAL_ACC_W][HIT] = 2
	L2_cache_stats_breakdown[GLOBAL_ACC_W][HIT_RESERVED] = 0
	L2_cache_stats_breakdown[GLOBAL_ACC_W][MISS] = 13
	L2_cache_stats_breakdown[GLOBAL_ACC_W][RESERVATION_FAIL] = 0
	L2_cache_stats_breakdown[LOCAL_ACC_W][HIT] = 0
	L2_cache_stats_breakdown[LOCAL_ACC_W][HIT_RESERVED] = 0
	L2_cache_stats_breakdown[LOCAL_ACC_W][MISS] = 0
	L2_cache_stats_breakdown[LOCAL_ACC_W][RESERVATION_FAIL] = 0
	L2_cache_stats_breakdown[L1_WRBK_ACC][HIT] = 0
	L2_cache_stats_breakdown[L1_WRBK_ACC][HIT_RESERVED] = 0
	L2_cache_stats_breakdown[L1_WRBK_ACC][MISS] = 0
	L2_cache_stats_breakdown[L1_WRBK_ACC][RESERVATION_FAIL] = 0
	L2_cache_stats_breakdown[L2_WRBK_ACC][HIT] = 0
	L2_cache_stats_breakdown[L2_WRBK_ACC][HIT_RESERVED] = 0
	L2_cache_stats_breakdown[L2_WRBK_ACC][MISS] = 0
	L2_cache_stats_breakdown[L2_WRBK_ACC][RESERVATION_FAIL] = 0
	L2_cache_stats_breakdown[INST_ACC_R][HIT] = 0
	L2_cache_stats_breakdown[INST_ACC_R][HIT_RESERVED] = 81
	L2_cache_stats_breakdown[INST_ACC_R][MISS] = 4
	L2_cache_stats_breakdown[INST_ACC_R][RESERVATION_FAIL] = 0
	L2_cache_stats_breakdown[L1_WR_ALLOC_R][HIT] = 0
	L2_cache_stats_breakdown[L1_WR_ALLOC_R][HIT_RESERVED] = 0
	L2_cache_stats_breakdown[L1_WR_ALLOC_R][MISS] = 0
	L2_cache_stats_breakdown[L1_WR_ALLOC_R][RESERVATION_FAIL] = 0
	L2_cache_stats_breakdown[L2_WR_ALLOC_R][HIT] = 0
	L2_cache_stats_breakdown[L2_WR_ALLOC_R][HIT_RESERVED] = 0
	L2_cache_stats_breakdown[L2_WR_ALLOC_R][MISS] = 0
	L2_cache_stats_breakdown[L2_WR_ALLOC_R][RESERVATION_FAIL] = 0
	L2_cache_stats_breakdown[GLOBAL_ACC_R][TOTAL_ACCESS] = 8208
	L2_cache_stats_breakdown[CONST_ACC_R][TOTAL_ACCESS] = 28
	L2_cache_stats_breakdown[GLOBAL_ACC_W][TOTAL_ACCESS] = 15
	L2_cache_stats_breakdown[INST_ACC_R][TOTAL_ACCESS] = 85
L2_cache_data_port_util = 0.000
L2_cache_fill_port_util = 0.002

icnt_total_pkts_mem_to_simt=16940
icnt_total_pkts_simt_to_mem=8351
LD_mem_lat_dist  0 0 0 0 0 0 0 0 0 0 0 0 0 0 0 0 0 0 0 0 0 0 0 0 0 0 0
ST_mem_lat_dist  0 0 0 0 0 0 0 0 0 0 0 0 0 0 0 0 0 0 0 0 0 0 0 0 0 0 0
----------------------------Interconnect-DETAILS--------------------------------
Class 0:
Packet latency average = 21.511
	minimum = 6
	maximum = 96
Network latency average = 15.5411
	minimum = 6
	maximum = 60
Slowest packet = 27
Flit latency average = 14.4738
	minimum = 6
	maximum = 60
Slowest flit = 27
Fragmentation average = 0
	minimum = 0
	maximum = 0
Injected packet rate average = 0.000902179
	minimum = 0.000746765 (at node 10)
	maximum = 0.00108768 (at node 28)
Accepted packet rate average = 0.000902179
	minimum = 0.000746765 (at node 10)
	maximum = 0.00108768 (at node 28)
Injected flit rate average = 0.00136858
	minimum = 0.000746765 (at node 10)
	maximum = 0.00239723 (at node 36)
Accepted flit rate average= 0.00136858
	minimum = 0.000995687 (at node 43)
	maximum = 0.00194808 (at node 1)
Injected packet length average = 1.51697
Accepted packet length average = 1.51697
Total in-flight flits = 0 (0 measured)
====== Overall Traffic Statistics ======
====== Traffic class 0 ======
Packet latency average = 21.511 (1 samples)
	minimum = 6 (1 samples)
	maximum = 96 (1 samples)
Network latency average = 15.5411 (1 samples)
	minimum = 6 (1 samples)
	maximum = 60 (1 samples)
Flit latency average = 14.4738 (1 samples)
	minimum = 6 (1 samples)
	maximum = 60 (1 samples)
Fragmentation average = 0 (1 samples)
	minimum = 0 (1 samples)
	maximum = 0 (1 samples)
Injected packet rate average = 0.000902179 (1 samples)
	minimum = 0.000746765 (1 samples)
	maximum = 0.00108768 (1 samples)
Accepted packet rate average = 0.000902179 (1 samples)
	minimum = 0.000746765 (1 samples)
	maximum = 0.00108768 (1 samples)
Injected flit rate average = 0.00136858 (1 samples)
	minimum = 0.000746765 (1 samples)
	maximum = 0.00239723 (1 samples)
Accepted flit rate average = 0.00136858 (1 samples)
	minimum = 0.000995687 (1 samples)
	maximum = 0.00194808 (1 samples)
Injected packet size average = 1.51697 (1 samples)
Accepted packet size average = 1.51697 (1 samples)
Hops average = 1 (1 samples)
----------------------------END-of-Interconnect-DETAILS-------------------------


gpgpu_simulation_time = 0 days, 0 hrs, 2 min, 53 sec (173 sec)
gpgpu_simulation_rate = 28729 (inst/sec)
gpgpu_simulation_rate = 2366 (cycle/sec)
GPGPU-Sim uArch: Shader 3 bind to kernel 2 '_Z7Kernel2PbS_S_S_i'
GPGPU-Sim uArch: CTA/core = 4, limited by: threads
GPGPU-Sim uArch: Shader 4 bind to kernel 2 '_Z7Kernel2PbS_S_S_i'
GPGPU-Sim uArch: Shader 5 bind to kernel 2 '_Z7Kernel2PbS_S_S_i'
GPGPU-Sim uArch: Shader 6 bind to kernel 2 '_Z7Kernel2PbS_S_S_i'
GPGPU-Sim uArch: Shader 7 bind to kernel 2 '_Z7Kernel2PbS_S_S_i'
GPGPU-Sim uArch: Shader 8 bind to kernel 2 '_Z7Kernel2PbS_S_S_i'
GPGPU-Sim uArch: Shader 9 bind to kernel 2 '_Z7Kernel2PbS_S_S_i'
GPGPU-Sim uArch: Shader 10 bind to kernel 2 '_Z7Kernel2PbS_S_S_i'
GPGPU-Sim uArch: Shader 11 bind to kernel 2 '_Z7Kernel2PbS_S_S_i'
GPGPU-Sim uArch: Shader 12 bind to kernel 2 '_Z7Kernel2PbS_S_S_i'
GPGPU-Sim uArch: Shader 13 bind to kernel 2 '_Z7Kernel2PbS_S_S_i'
GPGPU-Sim uArch: Shader 14 bind to kernel 2 '_Z7Kernel2PbS_S_S_i'
GPGPU-Sim uArch: Shader 15 bind to kernel 2 '_Z7Kernel2PbS_S_S_i'
GPGPU-Sim uArch: Shader 16 bind to kernel 2 '_Z7Kernel2PbS_S_S_i'
GPGPU-Sim uArch: Shader 17 bind to kernel 2 '_Z7Kernel2PbS_S_S_i'
GPGPU-Sim uArch: Shader 18 bind to kernel 2 '_Z7Kernel2PbS_S_S_i'
GPGPU-Sim uArch: Shader 19 bind to kernel 2 '_Z7Kernel2PbS_S_S_i'
GPGPU-Sim uArch: Shader 20 bind to kernel 2 '_Z7Kernel2PbS_S_S_i'
GPGPU-Sim uArch: Shader 21 bind to kernel 2 '_Z7Kernel2PbS_S_S_i'
GPGPU-Sim uArch: Shader 22 bind to kernel 2 '_Z7Kernel2PbS_S_S_i'
GPGPU-Sim uArch: Shader 23 bind to kernel 2 '_Z7Kernel2PbS_S_S_i'
GPGPU-Sim uArch: Shader 24 bind to kernel 2 '_Z7Kernel2PbS_S_S_i'
GPGPU-Sim uArch: Shader 25 bind to kernel 2 '_Z7Kernel2PbS_S_S_i'
GPGPU-Sim uArch: Shader 26 bind to kernel 2 '_Z7Kernel2PbS_S_S_i'
GPGPU-Sim uArch: Shader 27 bind to kernel 2 '_Z7Kernel2PbS_S_S_i'
GPGPU-Sim uArch: Shader 0 bind to kernel 2 '_Z7Kernel2PbS_S_S_i'
GPGPU-Sim uArch: Shader 1 bind to kernel 2 '_Z7Kernel2PbS_S_S_i'
GPGPU-Sim uArch: Shader 2 bind to kernel 2 '_Z7Kernel2PbS_S_S_i'
Destroy streams for kernel 2: size 0
kernel_name = _Z7Kernel2PbS_S_S_i 
kernel_launch_uid = 2 
gpu_sim_cycle = 4197
gpu_sim_insn = 4446874
gpu_ipc =    1059.5364
gpu_tot_sim_cycle = 635831
gpu_tot_sim_insn = 9417112
gpu_tot_ipc =      14.8107
gpu_tot_issued_cta = 1022
max_total_param_size = 0
gpu_stall_dramfull = 199
gpu_stall_icnt2sh    = 14384
partiton_reqs_in_parallel = 92222
partiton_reqs_in_parallel_total    = 4065469
partiton_level_parallism =      21.9733
partiton_level_parallism_total  =       6.5390
partiton_reqs_in_parallel_util = 92222
partiton_reqs_in_parallel_util_total    = 4065469
gpu_sim_cycle_parition_util = 4197
gpu_tot_sim_cycle_parition_util    = 184798
partiton_level_parallism_util =      21.9733
partiton_level_parallism_util_total  =      21.9989
partiton_replys_in_parallel = 8255
partiton_replys_in_parallel_total    = 8336
L2_BW  =     186.4289 GB/Sec
L2_BW_total  =       2.4732 GB/Sec
gpu_total_sim_rate=50903

========= Core cache stats =========
L1I_cache:
	L1I_total_cache_accesses = 171793
	L1I_total_cache_misses = 5466
	L1I_total_cache_miss_rate = 0.0318
	L1I_total_cache_pending_hits = 0
	L1I_total_cache_reservation_fails = 16590
L1D_cache:
	L1D_cache_core[0]: Access = 0, Miss = 0, Miss_rate = -nan, Pending_hits = 0, Reservation_fails = 0
	L1D_cache_core[1]: Access = 0, Miss = 0, Miss_rate = -nan, Pending_hits = 0, Reservation_fails = 0
	L1D_cache_core[2]: Access = 0, Miss = 0, Miss_rate = -nan, Pending_hits = 0, Reservation_fails = 0
	L1D_cache_core[3]: Access = 0, Miss = 0, Miss_rate = -nan, Pending_hits = 0, Reservation_fails = 0
	L1D_cache_core[4]: Access = 0, Miss = 0, Miss_rate = -nan, Pending_hits = 0, Reservation_fails = 0
	L1D_cache_core[5]: Access = 0, Miss = 0, Miss_rate = -nan, Pending_hits = 0, Reservation_fails = 0
	L1D_cache_core[6]: Access = 0, Miss = 0, Miss_rate = -nan, Pending_hits = 0, Reservation_fails = 0
	L1D_cache_core[7]: Access = 0, Miss = 0, Miss_rate = -nan, Pending_hits = 0, Reservation_fails = 0
	L1D_cache_core[8]: Access = 0, Miss = 0, Miss_rate = -nan, Pending_hits = 0, Reservation_fails = 0
	L1D_cache_core[9]: Access = 0, Miss = 0, Miss_rate = -nan, Pending_hits = 0, Reservation_fails = 0
	L1D_cache_core[10]: Access = 0, Miss = 0, Miss_rate = -nan, Pending_hits = 0, Reservation_fails = 0
	L1D_cache_core[11]: Access = 0, Miss = 0, Miss_rate = -nan, Pending_hits = 0, Reservation_fails = 0
	L1D_cache_core[12]: Access = 0, Miss = 0, Miss_rate = -nan, Pending_hits = 0, Reservation_fails = 0
	L1D_cache_core[13]: Access = 0, Miss = 0, Miss_rate = -nan, Pending_hits = 0, Reservation_fails = 0
	L1D_cache_core[14]: Access = 0, Miss = 0, Miss_rate = -nan, Pending_hits = 0, Reservation_fails = 0
	L1D_cache_core[15]: Access = 0, Miss = 0, Miss_rate = -nan, Pending_hits = 0, Reservation_fails = 0
	L1D_cache_core[16]: Access = 0, Miss = 0, Miss_rate = -nan, Pending_hits = 0, Reservation_fails = 0
	L1D_cache_core[17]: Access = 0, Miss = 0, Miss_rate = -nan, Pending_hits = 0, Reservation_fails = 0
	L1D_cache_core[18]: Access = 0, Miss = 0, Miss_rate = -nan, Pending_hits = 0, Reservation_fails = 0
	L1D_cache_core[19]: Access = 0, Miss = 0, Miss_rate = -nan, Pending_hits = 0, Reservation_fails = 0
	L1D_cache_core[20]: Access = 0, Miss = 0, Miss_rate = -nan, Pending_hits = 0, Reservation_fails = 0
	L1D_cache_core[21]: Access = 0, Miss = 0, Miss_rate = -nan, Pending_hits = 0, Reservation_fails = 0
	L1D_cache_core[22]: Access = 0, Miss = 0, Miss_rate = -nan, Pending_hits = 0, Reservation_fails = 0
	L1D_cache_core[23]: Access = 0, Miss = 0, Miss_rate = -nan, Pending_hits = 0, Reservation_fails = 0
	L1D_cache_core[24]: Access = 0, Miss = 0, Miss_rate = -nan, Pending_hits = 0, Reservation_fails = 0
	L1D_cache_core[25]: Access = 0, Miss = 0, Miss_rate = -nan, Pending_hits = 0, Reservation_fails = 0
	L1D_cache_core[26]: Access = 0, Miss = 0, Miss_rate = -nan, Pending_hits = 0, Reservation_fails = 0
	L1D_cache_core[27]: Access = 0, Miss = 0, Miss_rate = -nan, Pending_hits = 0, Reservation_fails = 0
	L1D_total_cache_accesses = 0
	L1D_total_cache_misses = 0
	L1D_total_cache_pending_hits = 0
	L1D_total_cache_reservation_fails = 0
	L1D_cache_data_port_util = 0.000
	L1D_cache_fill_port_util = 0.000
L1C_cache:
	L1C_total_cache_accesses = 98112
	L1C_total_cache_misses = 1792
	L1C_total_cache_miss_rate = 0.0183
	L1C_total_cache_pending_hits = 0
	L1C_total_cache_reservation_fails = 4886
L1T_cache:
	L1T_total_cache_accesses = 0
	L1T_total_cache_misses = 0
	L1T_total_cache_pending_hits = 0
	L1T_total_cache_reservation_fails = 0

Total_core_cache_stats:
	Total_core_cache_stats_breakdown[GLOBAL_ACC_R][HIT] = 0
	Total_core_cache_stats_breakdown[GLOBAL_ACC_R][HIT_RESERVED] = 0
	Total_core_cache_stats_breakdown[GLOBAL_ACC_R][MISS] = 0
	Total_core_cache_stats_breakdown[GLOBAL_ACC_R][RESERVATION_FAIL] = 0
	Total_core_cache_stats_breakdown[LOCAL_ACC_R][HIT] = 0
	Total_core_cache_stats_breakdown[LOCAL_ACC_R][HIT_RESERVED] = 0
	Total_core_cache_stats_breakdown[LOCAL_ACC_R][MISS] = 0
	Total_core_cache_stats_breakdown[LOCAL_ACC_R][RESERVATION_FAIL] = 0
	Total_core_cache_stats_breakdown[CONST_ACC_R][HIT] = 96320
	Total_core_cache_stats_breakdown[CONST_ACC_R][HIT_RESERVED] = 0
	Total_core_cache_stats_breakdown[CONST_ACC_R][MISS] = 1792
	Total_core_cache_stats_breakdown[CONST_ACC_R][RESERVATION_FAIL] = 4886
	Total_core_cache_stats_breakdown[TEXTURE_ACC_R][HIT] = 0
	Total_core_cache_stats_breakdown[TEXTURE_ACC_R][HIT_RESERVED] = 0
	Total_core_cache_stats_breakdown[TEXTURE_ACC_R][MISS] = 0
	Total_core_cache_stats_breakdown[TEXTURE_ACC_R][RESERVATION_FAIL] = 0
	Total_core_cache_stats_breakdown[GLOBAL_ACC_W][HIT] = 0
	Total_core_cache_stats_breakdown[GLOBAL_ACC_W][HIT_RESERVED] = 0
	Total_core_cache_stats_breakdown[GLOBAL_ACC_W][MISS] = 0
	Total_core_cache_stats_breakdown[GLOBAL_ACC_W][RESERVATION_FAIL] = 0
	Total_core_cache_stats_breakdown[LOCAL_ACC_W][HIT] = 0
	Total_core_cache_stats_breakdown[LOCAL_ACC_W][HIT_RESERVED] = 0
	Total_core_cache_stats_breakdown[LOCAL_ACC_W][MISS] = 0
	Total_core_cache_stats_breakdown[LOCAL_ACC_W][RESERVATION_FAIL] = 0
	Total_core_cache_stats_breakdown[L1_WRBK_ACC][HIT] = 0
	Total_core_cache_stats_breakdown[L1_WRBK_ACC][HIT_RESERVED] = 0
	Total_core_cache_stats_breakdown[L1_WRBK_ACC][MISS] = 0
	Total_core_cache_stats_breakdown[L1_WRBK_ACC][RESERVATION_FAIL] = 0
	Total_core_cache_stats_breakdown[L2_WRBK_ACC][HIT] = 0
	Total_core_cache_stats_breakdown[L2_WRBK_ACC][HIT_RESERVED] = 0
	Total_core_cache_stats_breakdown[L2_WRBK_ACC][MISS] = 0
	Total_core_cache_stats_breakdown[L2_WRBK_ACC][RESERVATION_FAIL] = 0
	Total_core_cache_stats_breakdown[INST_ACC_R][HIT] = 166327
	Total_core_cache_stats_breakdown[INST_ACC_R][HIT_RESERVED] = 0
	Total_core_cache_stats_breakdown[INST_ACC_R][MISS] = 5466
	Total_core_cache_stats_breakdown[INST_ACC_R][RESERVATION_FAIL] = 16590
	Total_core_cache_stats_breakdown[L1_WR_ALLOC_R][HIT] = 0
	Total_core_cache_stats_breakdown[L1_WR_ALLOC_R][HIT_RESERVED] = 0
	Total_core_cache_stats_breakdown[L1_WR_ALLOC_R][MISS] = 0
	Total_core_cache_stats_breakdown[L1_WR_ALLOC_R][RESERVATION_FAIL] = 0
	Total_core_cache_stats_breakdown[L2_WR_ALLOC_R][HIT] = 0
	Total_core_cache_stats_breakdown[L2_WR_ALLOC_R][HIT_RESERVED] = 0
	Total_core_cache_stats_breakdown[L2_WR_ALLOC_R][MISS] = 0
	Total_core_cache_stats_breakdown[L2_WR_ALLOC_R][RESERVATION_FAIL] = 0
	Total_core_cache_stats_breakdown[CONST_ACC_R][TOTAL_ACCESS] = 98112
	Total_core_cache_stats_breakdown[INST_ACC_R][TOTAL_ACCESS] = 171793
Shader 0 warp_id issue ditsribution:
warp_id:
[...]
F: 16718627----T: 16757346 	 St: c0970000 Sz: 327680 	 Sm: 0 	 T: memcpy_h2d(26.143822)
F: 16757346----T: 16761987 	 St: c04b0000 Sz: 28672 	 Sm: 0 	 T: memcpy_h2d(3.133693)
F: 16761987----T: 16767502 	 St: c04b7000 Sz: 36864 	 Sm: 0 	 T: memcpy_h2d(3.723835)
F: 16820723----T: 16823328 	 St: c0220000 Sz: 4096 	 Sm: 0 	 T: memcpy_h2d(1.758947)
F: 16823328----T: 16825933 	 St: c0221000 Sz: 4096 	 Sm: 0 	 T: memcpy_h2d(1.758947)
F: 16824376----T: 17066456 	 St: c04c0000 Sz: 2097152 	 Sm: 0 	 T: write_back(163.457123)
F: 16825933----T: 16828538 	 St: c0222000 Sz: 4096 	 Sm: 0 	 T: memcpy_h2d(1.758947)
F: 16828538----T: 16843296 	 St: c0223000 Sz: 118784 	 Sm: 0 	 T: memcpy_h2d(9.964889)
F: 16843296----T: 16845901 	 St: c0100000 Sz: 4096 	 Sm: 0 	 T: memcpy_h2d(1.758947)
F: 16845901----T: 16966990 	 St: c0101000 Sz: 1044480 	 Sm: 0 	 T: memcpy_h2d(81.761650)
F: 16966990----T: 16971631 	 St: c0560000 Sz: 28672 	 Sm: 0 	 T: memcpy_h2d(3.133693)
F: 16971631----T: 16974717 	 St: c0567000 Sz: 12288 	 Sm: 0 	 T: memcpy_h2d(2.083727)
F: 16974717----T: 16978936 	 St: c056a000 Sz: 24576 	 Sm: 0 	 T: memcpy_h2d(2.848751)
F: 16978936----T: 16982022 	 St: c0580000 Sz: 12288 	 Sm: 0 	 T: memcpy_h2d(2.083727)
F: 16982022----T: 16987983 	 St: c0583000 Sz: 40960 	 Sm: 0 	 T: memcpy_h2d(4.024983)
F: 16987983----T: 16991069 	 St: c058d000 Sz: 12288 	 Sm: 0 	 T: memcpy_h2d(2.083727)
F: 16991069----T: 16995288 	 St: c05b0000 Sz: 24576 	 Sm: 0 	 T: memcpy_h2d(2.848751)
F: 16995288----T: 17001249 	 St: c05b6000 Sz: 40960 	 Sm: 0 	 T: memcpy_h2d(4.024983)
F: 17001249----T: 17003854 	 St: c0570000 Sz: 4096 	 Sm: 0 	 T: memcpy_h2d(1.758947)
F: 17003854----T: 17012094 	 St: c0571000 Sz: 61440 	 Sm: 0 	 T: memcpy_h2d(5.563808)
F: 17012094----T: 17028257 	 St: c0540000 Sz: 131072 	 Sm: 0 	 T: memcpy_h2d(10.913572)
F: 17028257----T: 17043015 	 St: c0590000 Sz: 118784 	 Sm: 0 	 T: memcpy_h2d(9.964889)
F: 17043015----T: 17046101 	 St: c05ad000 Sz: 12288 	 Sm: 0 	 T: memcpy_h2d(2.083727)
F: 17046101----T: 17048706 	 St: c05c0000 Sz: 4096 	 Sm: 0 	 T: memcpy_h2d(1.758947)
F: 17048706----T: 17056946 	 St: c05c1000 Sz: 61440 	 Sm: 0 	 T: memcpy_h2d(5.563808)
F: 17056946----T: 17059551 	 St: c05d0000 Sz: 4096 	 Sm: 0 	 T: memcpy_h2d(1.758947)
F: 17059551----T: 17067791 	 St: c05d1000 Sz: 61440 	 Sm: 0 	 T: memcpy_h2d(5.563808)
F: 17066457----T: 17097650 	 St: c0200000 Sz: 262144 	 Sm: 0 	 T: write_back(21.062120)
F: 17067791----T: 17070396 	 St: c05e0000 Sz: 4096 	 Sm: 0 	 T: memcpy_h2d(1.758947)
F: 17070396----T: 17086091 	 St: c05e1000 Sz: 126976 	 Sm: 0 	 T: memcpy_h2d(10.597569)
F: 17086091----T: 17089903 	 St: c0650000 Sz: 20480 	 Sm: 0 	 T: memcpy_h2d(2.573936)
F: 17089903----T: 17096315 	 St: c0655000 Sz: 45056 	 Sm: 0 	 T: memcpy_h2d(4.329507)
F: 17096315----T: 17157622 	 St: c04c0000 Sz: 524288 	 Sm: 0 	 T: memcpy_h2d(41.395679)
F: 17157622----T: 17161841 	 St: c0600000 Sz: 24576 	 Sm: 0 	 T: memcpy_h2d(2.848751)
F: 17161841----T: 17197738 	 St: c0606000 Sz: 303104 	 Sm: 0 	 T: memcpy_h2d(24.238352)
F: 17197738----T: 17243985 	 St: c0660000 Sz: 393216 	 Sm: 0 	 T: memcpy_h2d(31.226873)
F: 17244236----T: 17250648 	 St: c0220000 Sz: 45056 	 Sm: 0 	 T: memcpy_h2d(4.329507)
F: 17250648----T: 17253253 	 St: c022b000 Sz: 4096 	 Sm: 0 	 T: memcpy_h2d(1.758947)
F: 17252125----T: 17283318 	 St: c0280000 Sz: 262144 	 Sm: 0 	 T: write_back(21.062120)
F: 17253253----T: 17255858 	 St: c022c000 Sz: 4096 	 Sm: 0 	 T: memcpy_h2d(1.758947)
F: 17255858----T: 17258463 	 St: c022d000 Sz: 4096 	 Sm: 0 	 T: memcpy_h2d(1.758947)
F: 17258463----T: 17261263 	 St: c022e000 Sz: 8192 	 Sm: 0 	 T: memcpy_h2d(1.890614)
F: 17261263----T: 17263868 	 St: c0230000 Sz: 4096 	 Sm: 0 	 T: memcpy_h2d(1.758947)
F: 17263868----T: 17272108 	 St: c0231000 Sz: 61440 	 Sm: 0 	 T: memcpy_h2d(5.563808)
F: 17272108----T: 17276749 	 St: c06c0000 Sz: 28672 	 Sm: 0 	 T: memcpy_h2d(3.133693)
F: 17276749----T: 17282264 	 St: c06c7000 Sz: 36864 	 Sm: 0 	 T: memcpy_h2d(3.723835)
F: 17282264----T: 17289129 	 St: c0290000 Sz: 49152 	 Sm: 0 	 T: memcpy_h2d(4.635382)
F: 17283318----T: 17314511 	 St: c0240000 Sz: 262144 	 Sm: 0 	 T: write_back(21.062120)
F: 17289129----T: 17292559 	 St: c029c000 Sz: 16384 	 Sm: 0 	 T: memcpy_h2d(2.316003)
F: 17292559----T: 17298971 	 St: c02b0000 Sz: 45056 	 Sm: 0 	 T: memcpy_h2d(4.329507)
F: 17298971----T: 17302783 	 St: c02bb000 Sz: 20480 	 Sm: 0 	 T: memcpy_h2d(2.573936)
F: 17302783----T: 17305388 	 St: c0280000 Sz: 4096 	 Sm: 0 	 T: memcpy_h2d(1.758947)
F: 17305388----T: 17313168 	 St: c0281000 Sz: 57344 	 Sm: 0 	 T: memcpy_h2d(5.253207)
F: 17313168----T: 17315773 	 St: c028f000 Sz: 4096 	 Sm: 0 	 T: memcpy_h2d(1.758947)
F: 17314511----T: 17556591 	 St: c0000000 Sz: 2097152 	 Sm: 0 	 T: write_back(163.457123)
F: 17315773----T: 17321734 	 St: c02a0000 Sz: 40960 	 Sm: 0 	 T: memcpy_h2d(4.024983)
F: 17321734----T: 17325953 	 St: c02aa000 Sz: 24576 	 Sm: 0 	 T: memcpy_h2d(2.848751)
F: 17325953----T: 17329039 	 St: c06d0000 Sz: 12288 	 Sm: 0 	 T: memcpy_h2d(2.083727)
F: 17329039----T: 17336361 	 St: c06d3000 Sz: 53248 	 Sm: 0 	 T: memcpy_h2d(4.943957)
F: 17336361----T: 17338966 	 St: c06e0000 Sz: 4096 	 Sm: 0 	 T: memcpy_h2d(1.758947)
F: 17338966----T: 17354661 	 St: c06e1000 Sz: 126976 	 Sm: 0 	 T: memcpy_h2d(10.597569)
F: 17354661----T: 17358473 	 St: c0700000 Sz: 20480 	 Sm: 0 	 T: memcpy_h2d(2.573936)
F: 17358473----T: 17387315 	 St: c0705000 Sz: 241664 	 Sm: 0 	 T: memcpy_h2d(19.474680)
F: 17387315----T: 17389920 	 St: c0740000 Sz: 4096 	 Sm: 0 	 T: memcpy_h2d(1.758947)
F: 17389920----T: 17541138 	 St: c0741000 Sz: 1306624 	 Sm: 0 	 T: memcpy_h2d(102.105331)
F: 17541138----T: 17544950 	 St: c0270000 Sz: 20480 	 Sm: 0 	 T: memcpy_h2d(2.573936)
F: 17544950----T: 17551362 	 St: c0275000 Sz: 45056 	 Sm: 0 	 T: memcpy_h2d(4.329507)
F: 17551362----T: 17556003 	 St: c0250000 Sz: 28672 	 Sm: 0 	 T: memcpy_h2d(3.133693)
F: 17556003----T: 17561518 	 St: c0257000 Sz: 36864 	 Sm: 0 	 T: memcpy_h2d(3.723835)
F: 17556592----T: 17798672 	 St: c04c0000 Sz: 2097152 	 Sm: 0 	 T: write_back(163.457123)
F: 17561518----T: 17568383 	 St: c0240000 Sz: 49152 	 Sm: 0 	 T: memcpy_h2d(4.635382)
F: 17568383----T: 17571813 	 St: c024c000 Sz: 16384 	 Sm: 0 	 T: memcpy_h2d(2.316003)
F: 17571813----T: 17580515 	 St: c0260000 Sz: 65536 	 Sm: 0 	 T: memcpy_h2d(5.875760)
F: 17580515----T: 17589217 	 St: c0130000 Sz: 65536 	 Sm: 0 	 T: memcpy_h2d(5.875760)
F: 17589217----T: 17593858 	 St: c0150000 Sz: 28672 	 Sm: 0 	 T: memcpy_h2d(3.133693)
F: 17593858----T: 17599373 	 St: c0157000 Sz: 36864 	 Sm: 0 	 T: memcpy_h2d(3.723835)
F: 17599373----T: 17603592 	 St: c0140000 Sz: 24576 	 Sm: 0 	 T: memcpy_h2d(2.848751)
F: 17603592----T: 17609553 	 St: c0146000 Sz: 40960 	 Sm: 0 	 T: memcpy_h2d(4.024983)
F: 17609553----T: 17633225 	 St: c0100000 Sz: 196608 	 Sm: 0 	 T: memcpy_h2d(15.983795)
F: 17633225----T: 17636025 	 St: c0160000 Sz: 8192 	 Sm: 0 	 T: memcpy_h2d(1.890614)
F: 17636025----T: 17651251 	 St: c0162000 Sz: 122880 	 Sm: 0 	 T: memcpy_h2d(10.280891)
F: 17651251----T: 17664606 	 St: c0180000 Sz: 106496 	 Sm: 0 	 T: memcpy_h2d(9.017555)
F: 17664606----T: 17713676 	 St: c019a000 Sz: 417792 	 Sm: 0 	 T: memcpy_h2d(33.133018)
F: 17713676----T: 17718317 	 St: c0670000 Sz: 28672 	 Sm: 0 	 T: memcpy_h2d(3.133693)
F: 17718317----T: 17723832 	 St: c0677000 Sz: 36864 	 Sm: 0 	 T: memcpy_h2d(3.723835)
F: 17723832----T: 17729793 	 St: c0660000 Sz: 40960 	 Sm: 0 	 T: memcpy_h2d(4.024983)
F: 17729793----T: 17734012 	 St: c066a000 Sz: 24576 	 Sm: 0 	 T: memcpy_h2d(2.848751)
F: 17734012----T: 17736617 	 St: c0680000 Sz: 4096 	 Sm: 0 	 T: memcpy_h2d(1.758947)
F: 17736617----T: 17744857 	 St: c0681000 Sz: 61440 	 Sm: 0 	 T: memcpy_h2d(5.563808)
F: 17744857----T: 17752637 	 St: c06b0000 Sz: 57344 	 Sm: 0 	 T: memcpy_h2d(5.253207)
F: 17752637----T: 17755437 	 St: c06be000 Sz: 8192 	 Sm: 0 	 T: memcpy_h2d(1.890614)
F: 17755437----T: 17771600 	 St: c0640000 Sz: 131072 	 Sm: 0 	 T: memcpy_h2d(10.913572)
F: 17771600----T: 17774686 	 St: c0690000 Sz: 12288 	 Sm: 0 	 T: memcpy_h2d(2.083727)
F: 17774686----T: 17789444 	 St: c0693000 Sz: 118784 	 Sm: 0 	 T: memcpy_h2d(9.964889)
F: 18059605----T: 18086337 	 	 	 Kl: 18 	 Sm: 0 	 T: kernel_launch(18.049967)
F: 18060219----T: 18063019 	 St: c0200000 Sz: 8192 	 Sm: 0 	 T: memcpy_h2d(1.890614)
F: 18063019----T: 18078245 	 St: c0202000 Sz: 122880 	 Sm: 0 	 T: memcpy_h2d(10.280891)
F: 18086337----T: 18088872 	 St: 80000000 Sz: 1 	 Sm: 0 	 T: memcpy_d2h(1.711681)
F: 18088873----T: 18091408 	 St: 80000000 Sz: 1 	 Sm: 0 	 T: memcpy_h2d(1.711681)
F: 18313559----T: 19706378 	 	 	 Kl: 19 	 Sm: 0 	 T: kernel_launch(940.458496)
F: 18314159----T: 18321481 	 St: c0000000 Sz: 53248 	 Sm: 0 	 T: memcpy_h2d(4.943957)
F: 18314159----T: 18435719 	 St: c08c0000 Sz: 1048576 	 Sm: 0 	 T: write_back(82.079674)
F: 18321481----T: 18436921 	 St: c000d000 Sz: 995328 	 Sm: 0 	 T: memcpy_h2d(77.947334)
F: 18436921----T: 18441562 	 St: c02c0000 Sz: 28672 	 Sm: 0 	 T: memcpy_h2d(3.133693)
F: 18437490----T: 18679570 	 St: c06c0000 Sz: 2097152 	 Sm: 0 	 T: write_back(163.457123)
F: 18441562----T: 18444648 	 St: c02c7000 Sz: 12288 	 Sm: 0 	 T: memcpy_h2d(2.083727)
F: 18444648----T: 18448867 	 St: c02ca000 Sz: 24576 	 Sm: 0 	 T: memcpy_h2d(2.848751)
F: 18448867----T: 18454382 	 St: c02d0000 Sz: 36864 	 Sm: 0 	 T: memcpy_h2d(3.723835)
F: 18454382----T: 18459023 	 St: c02d9000 Sz: 28672 	 Sm: 0 	 T: memcpy_h2d(3.133693)
F: 18459023----T: 18461823 	 St: c02e0000 Sz: 8192 	 Sm: 0 	 T: memcpy_h2d(1.890614)
F: 18461823----T: 18477049 	 St: c02e2000 Sz: 122880 	 Sm: 0 	 T: memcpy_h2d(10.280891)
F: 18477049----T: 18504951 	 St: c0300000 Sz: 233472 	 Sm: 0 	 T: memcpy_h2d(18.839973)
F: 18504951----T: 18509592 	 St: c0339000 Sz: 28672 	 Sm: 0 	 T: memcpy_h2d(3.133693)
F: 18509592----T: 18535614 	 St: c0340000 Sz: 217088 	 Sm: 0 	 T: memcpy_h2d(17.570560)
F: 18535614----T: 18684949 	 St: c0375000 Sz: 1290240 	 Sm: 0 	 T: memcpy_h2d(100.833893)
F: 18684949----T: 18690464 	 St: c08c0000 Sz: 36864 	 Sm: 0 	 T: memcpy_h2d(3.723835)
F: 18690464----T: 18695105 	 St: c08c9000 Sz: 28672 	 Sm: 0 	 T: memcpy_h2d(3.133693)
F: 18695105----T: 18697905 	 St: c08d0000 Sz: 8192 	 Sm: 0 	 T: memcpy_h2d(1.890614)
F: 18697905----T: 18705685 	 St: c08d2000 Sz: 57344 	 Sm: 0 	 T: memcpy_h2d(5.253207)
F: 18705685----T: 18710326 	 St: c0960000 Sz: 28672 	 Sm: 0 	 T: memcpy_h2d(3.133693)
F: 18710326----T: 18715841 	 St: c0967000 Sz: 36864 	 Sm: 0 	 T: memcpy_h2d(3.723835)
F: 18715841----T: 18723163 	 St: c09b0000 Sz: 53248 	 Sm: 0 	 T: memcpy_h2d(4.943957)
F: 18723163----T: 18726249 	 St: c09bd000 Sz: 12288 	 Sm: 0 	 T: memcpy_h2d(2.083727)
F: 18727515----T: 18731734 	 St: c04f0000 Sz: 24576 	 Sm: 0 	 T: memcpy_h2d(2.848751)
F: 18727545----T: 18758738 	 St: c0240000 Sz: 262144 	 Sm: 0 	 T: write_back(21.062120)
F: 18731734----T: 18737695 	 St: c04f6000 Sz: 40960 	 Sm: 0 	 T: memcpy_h2d(4.024983)
F: 18737695----T: 18741507 	 St: c0500000 Sz: 20480 	 Sm: 0 	 T: memcpy_h2d(2.573936)
F: 18741507----T: 18747919 	 St: c0505000 Sz: 45056 	 Sm: 0 	 T: memcpy_h2d(4.329507)
F: 18747919----T: 18754784 	 St: c04c0000 Sz: 49152 	 Sm: 0 	 T: memcpy_h2d(4.635382)
F: 18754784----T: 18758214 	 St: c04cc000 Sz: 16384 	 Sm: 0 	 T: memcpy_h2d(2.316003)
F: 18758214----T: 18768770 	 St: c04d0000 Sz: 81920 	 Sm: 0 	 T: memcpy_h2d(7.127616)
F: 18758738----T: 18789931 	 St: c0200000 Sz: 262144 	 Sm: 0 	 T: write_back(21.062120)
F: 18768770----T: 18775635 	 St: c04e4000 Sz: 49152 	 Sm: 0 	 T: memcpy_h2d(4.635382)
F: 18775635----T: 18799307 	 St: c0510000 Sz: 196608 	 Sm: 0 	 T: memcpy_h2d(15.983795)
F: 18789931----T: 19032011 	 St: c0000000 Sz: 2097152 	 Sm: 0 	 T: write_back(163.457123)
F: 18799307----T: 18813597 	 St: c0540000 Sz: 114688 	 Sm: 0 	 T: memcpy_h2d(9.648886)
F: 18813597----T: 18921976 	 St: c055c000 Sz: 933888 	 Sm: 0 	 T: memcpy_h2d(73.179611)
F: 18921976----T: 18925788 	 St: c0910000 Sz: 20480 	 Sm: 0 	 T: memcpy_h2d(2.573936)
F: 18925788----T: 18932200 	 St: c0915000 Sz: 45056 	 Sm: 0 	 T: memcpy_h2d(4.329507)
F: 18932200----T: 18936841 	 St: c0900000 Sz: 28672 	 Sm: 0 	 T: memcpy_h2d(3.133693)
F: 18936841----T: 18942356 	 St: c0907000 Sz: 36864 	 Sm: 0 	 T: memcpy_h2d(3.723835)
F: 18942356----T: 18948317 	 St: c00a0000 Sz: 40960 	 Sm: 0 	 T: memcpy_h2d(4.024983)
F: 18948317----T: 18952536 	 St: c00aa000 Sz: 24576 	 Sm: 0 	 T: memcpy_h2d(2.848751)
F: 18952536----T: 18958497 	 St: c0260000 Sz: 40960 	 Sm: 0 	 T: memcpy_h2d(4.024983)
F: 18958497----T: 18962716 	 St: c026a000 Sz: 24576 	 Sm: 0 	 T: memcpy_h2d(2.848751)
F: 18962716----T: 18970038 	 St: c0080000 Sz: 53248 	 Sm: 0 	 T: memcpy_h2d(4.943957)
F: 18970038----T: 18973124 	 St: c008d000 Sz: 12288 	 Sm: 0 	 T: memcpy_h2d(2.083727)
F: 18973124----T: 18981826 	 St: c0270000 Sz: 65536 	 Sm: 0 	 T: memcpy_h2d(5.875760)
F: 19032303----T: 19039625 	 St: c0210000 Sz: 53248 	 Sm: 0 	 T: memcpy_h2d(4.943957)
F: 19039625----T: 19042230 	 St: c021d000 Sz: 4096 	 Sm: 0 	 T: memcpy_h2d(1.758947)
F: 19042230----T: 19044835 	 St: c021e000 Sz: 4096 	 Sm: 0 	 T: memcpy_h2d(1.758947)
F: 19044835----T: 19047440 	 St: c021f000 Sz: 4096 	 Sm: 0 	 T: memcpy_h2d(1.758947)
F: 19047440----T: 19050045 	 St: c0220000 Sz: 4096 	 Sm: 0 	 T: memcpy_h2d(1.758947)
F: 19050045----T: 19052650 	 St: c0221000 Sz: 4096 	 Sm: 0 	 T: memcpy_h2d(1.758947)
F: 19052650----T: 19055255 	 St: c0222000 Sz: 4096 	 Sm: 0 	 T: memcpy_h2d(1.758947)
F: 19055255----T: 19062577 	 St: c0223000 Sz: 53248 	 Sm: 0 	 T: memcpy_h2d(4.943957)
F: 19062577----T: 19066796 	 St: c00e0000 Sz: 24576 	 Sm: 0 	 T: memcpy_h2d(2.848751)
F: 19066796----T: 19072757 	 St: c00e6000 Sz: 40960 	 Sm: 0 	 T: memcpy_h2d(4.024983)
F: 19072757----T: 19076976 	 St: c00f0000 Sz: 24576 	 Sm: 0 	 T: memcpy_h2d(2.848751)
F: 19076976----T: 19082937 	 St: c00f6000 Sz: 40960 	 Sm: 0 	 T: memcpy_h2d(4.024983)
F: 19082937----T: 19085737 	 St: c0100000 Sz: 8192 	 Sm: 0 	 T: memcpy_h2d(1.890614)
F: 19085737----T: 19089167 	 St: c0102000 Sz: 16384 	 Sm: 0 	 T: memcpy_h2d(2.316003)
F: 19089167----T: 19091967 	 St: c0106000 Sz: 8192 	 Sm: 0 	 T: memcpy_h2d(1.890614)
F: 19091967----T: 19097041 	 St: c0108000 Sz: 32768 	 Sm: 0 	 T: memcpy_h2d(3.426064)
F: 19097041----T: 19100471 	 St: c0110000 Sz: 16384 	 Sm: 0 	 T: memcpy_h2d(2.316003)
F: 19100471----T: 19103076 	 St: c0114000 Sz: 4096 	 Sm: 0 	 T: memcpy_h2d(1.758947)
F: 19103076----T: 19109488 	 St: c0115000 Sz: 45056 	 Sm: 0 	 T: memcpy_h2d(4.329507)
F: 19109488----T: 19112288 	 St: c0120000 Sz: 8192 	 Sm: 0 	 T: memcpy_h2d(1.890614)
F: 19112288----T: 19127514 	 St: c0122000 Sz: 122880 	 Sm: 0 	 T: memcpy_h2d(10.280891)
F: 19127514----T: 19131733 	 St: c0140000 Sz: 24576 	 Sm: 0 	 T: memcpy_h2d(2.848751)
F: 19131733----T: 19136807 	 St: c0146000 Sz: 32768 	 Sm: 0 	 T: memcpy_h2d(3.426064)
F: 19136807----T: 19161419 	 St: c014e000 Sz: 204800 	 Sm: 0 	 T: memcpy_h2d(16.618502)
F: 19161744----T: 19170446 	 St: c0200000 Sz: 65536 	 Sm: 0 	 T: memcpy_h2d(5.875760)
F: 19162575----T: 19404655 	 St: c02c0000 Sz: 2097152 	 Sm: 0 	 T: write_back(163.457123)
F: 19170446----T: 19173051 	 St: c0230000 Sz: 4096 	 Sm: 0 	 T: memcpy_h2d(1.758947)
F: 19173051----T: 19181291 	 St: c0231000 Sz: 61440 	 Sm: 0 	 T: memcpy_h2d(5.563808)
F: 19181291----T: 19184091 	 St: c0700000 Sz: 8192 	 Sm: 0 	 T: memcpy_h2d(1.890614)
F: 19184091----T: 19191871 	 St: c0702000 Sz: 57344 	 Sm: 0 	 T: memcpy_h2d(5.253207)
F: 19191871----T: 19200573 	 St: c06f0000 Sz: 65536 	 Sm: 0 	 T: memcpy_h2d(5.875760)
F: 19200573----T: 19204385 	 St: c06c0000 Sz: 20480 	 Sm: 0 	 T: memcpy_h2d(2.573936)
F: 19204385----T: 19210797 	 St: c06c5000 Sz: 45056 	 Sm: 0 	 T: memcpy_h2d(4.329507)
F: 19210797----T: 19225555 	 St: c06d0000 Sz: 118784 	 Sm: 0 	 T: memcpy_h2d(9.964889)
F: 19225555----T: 19228641 	 St: c06ed000 Sz: 12288 	 Sm: 0 	 T: memcpy_h2d(2.083727)
F: 19228641----T: 19252313 	 St: c0710000 Sz: 196608 	 Sm: 0 	 T: memcpy_h2d(15.983795)
F: 19252313----T: 19254918 	 St: c0740000 Sz: 4096 	 Sm: 0 	 T: memcpy_h2d(1.758947)
F: 19254918----T: 19315754 	 St: c0741000 Sz: 520192 	 Sm: 0 	 T: memcpy_h2d(41.077652)
F: 19315754----T: 19377061 	 St: c0000000 Sz: 524288 	 Sm: 0 	 T: memcpy_h2d(41.395679)
F: 19377061----T: 19385763 	 St: c0090000 Sz: 65536 	 Sm: 0 	 T: memcpy_h2d(5.875760)
F: 19385763----T: 19409435 	 St: c00b0000 Sz: 196608 	 Sm: 0 	 T: memcpy_h2d(15.983795)
F: 19404656----T: 19646736 	 St: c04c0000 Sz: 2097152 	 Sm: 0 	 T: write_back(163.457123)
F: 19409435----T: 19412865 	 St: c0180000 Sz: 16384 	 Sm: 0 	 T: memcpy_h2d(2.316003)
F: 19412865----T: 19415470 	 St: c0184000 Sz: 4096 	 Sm: 0 	 T: memcpy_h2d(1.758947)
F: 19415470----T: 19474423 	 St: c0185000 Sz: 503808 	 Sm: 0 	 T: memcpy_h2d(39.806213)
F: 19474423----T: 19478642 	 St: c0970000 Sz: 24576 	 Sm: 0 	 T: memcpy_h2d(2.848751)
F: 19478642----T: 19484603 	 St: c0976000 Sz: 40960 	 Sm: 0 	 T: memcpy_h2d(4.024983)
F: 19484603----T: 19509215 	 St: c07c0000 Sz: 204800 	 Sm: 0 	 T: memcpy_h2d(16.618502)
F: 19509215----T: 19607237 	 St: c07f2000 Sz: 843776 	 Sm: 0 	 T: memcpy_h2d(66.186363)
F: 19607237----T: 19611049 	 St: c0990000 Sz: 20480 	 Sm: 0 	 T: memcpy_h2d(2.573936)
F: 19611049----T: 19617461 	 St: c0995000 Sz: 45056 	 Sm: 0 	 T: memcpy_h2d(4.329507)
F: 19617461----T: 19633624 	 St: c08e0000 Sz: 131072 	 Sm: 0 	 T: memcpy_h2d(10.913572)
F: 19633624----T: 19664817 	 St: c0920000 Sz: 262144 	 Sm: 0 	 T: memcpy_h2d(21.062120)
F: 19664817----T: 19672597 	 St: c0980000 Sz: 57344 	 Sm: 0 	 T: memcpy_h2d(5.253207)
F: 19672597----T: 19675397 	 St: c098e000 Sz: 8192 	 Sm: 0 	 T: memcpy_h2d(1.890614)
F: 19675397----T: 19684099 	 St: c09a0000 Sz: 65536 	 Sm: 0 	 T: memcpy_h2d(5.875760)
F: 19684099----T: 19689614 	 St: c0240000 Sz: 36864 	 Sm: 0 	 T: memcpy_h2d(3.723835)
F: 19689614----T: 19701568 	 St: c0249000 Sz: 94208 	 Sm: 0 	 T: memcpy_h2d(8.071573)
F: 19928528----T: 19931955 	 	 	 Kl: 20 	 Sm: 0 	 T: kernel_launch(2.313977)
F: 19931955----T: 19934490 	 St: 80000000 Sz: 1 	 Sm: 0 	 T: memcpy_d2h(1.711681)
F: 19934491----T: 19937026 	 St: 80000000 Sz: 1 	 Sm: 0 	 T: memcpy_h2d(1.711681)
F: 20159177----T: 20194677 	 	 	 Kl: 21 	 Sm: 0 	 T: kernel_launch(23.970291)
F: 20160427----T: 20163032 	 St: c0360000 Sz: 4096 	 Sm: 0 	 T: memcpy_h2d(1.758947)
F: 20163032----T: 20171272 	 St: c0361000 Sz: 61440 	 Sm: 0 	 T: memcpy_h2d(5.563808)
F: 20171272----T: 20173877 	 St: c0380000 Sz: 4096 	 Sm: 0 	 T: memcpy_h2d(1.758947)
F: 20173877----T: 20182117 	 St: c0381000 Sz: 61440 	 Sm: 0 	 T: memcpy_h2d(5.563808)
F: 20183536----T: 20188177 	 St: c06a0000 Sz: 28672 	 Sm: 0 	 T: memcpy_h2d(3.133693)
F: 20188177----T: 20193692 	 St: c06a7000 Sz: 36864 	 Sm: 0 	 T: memcpy_h2d(3.723835)
F: 20416827----T: 20420075 	 	 	 Kl: 22 	 Sm: 0 	 T: kernel_launch(2.193113)
F: 20420075----T: 20422610 	 St: 80000000 Sz: 1 	 Sm: 0 	 T: memcpy_d2h(1.711681)
F: 20422611----T: 20425216 	 St: 0 Sz: 4096 	 Sm: 0 	 T: device_sync(1.758947)
F: 20422611----T: 20430851 	 St: 0 Sz: 61440 	 Sm: 0 	 T: device_sync(5.563808)
F: 20433456----T: 20436061 	 St: 0 Sz: 4096 	 Sm: 0 	 T: device_sync(1.758947)
F: 20433456----T: 20441696 	 St: 0 Sz: 61440 	 Sm: 0 	 T: device_sync(5.563808)
F: 20444301----T: 20446906 	 St: 0 Sz: 4096 	 Sm: 0 	 T: device_sync(1.758947)
F: 20444301----T: 20459996 	 St: 0 Sz: 126976 	 Sm: 0 	 T: device_sync(10.597569)
F: 20462601----T: 20465206 	 St: 0 Sz: 4096 	 Sm: 0 	 T: device_sync(1.758947)
F: 20462601----T: 20484864 	 St: 0 Sz: 184320 	 Sm: 0 	 T: device_sync(15.032411)
Tot_prefetch_time: 0(cycle), 0.000000(us)
Tot_kernel_exec_time: 15479519(cycle), 10452.072266(us)
Tot_kernel_exec_time_and_fault_time: 58265609(cycle), 39342.070312(us)
Tot_memcpy_h2d_time: 13646461(cycle), 9214.355469(us)
Tot_memcpy_d2h_time: 27885(cycle), 18.828495(us)
Tot_memcpy_time: 13674346(cycle), 9233.184570(us)
Tot_devicesync_time: 64858(cycle), 43.793385(us)
Tot_writeback_time: 11300800(cycle), 7630.520020(us)
Tot_dma_time: 0(cycle), 0.000000(us)
Tot_memcpy_d2h_sync_wb_time: 11393543(cycle), 7693.141602(us)
GPGPU-Sim: *** exit detected ***
