

        *** GPGPU-Sim Simulator Version 3.2.2  [build gpgpu-sim_git-commit-32a5e88e7f0bd0281e1f3b1056e517909662bd85_modified_0] ***


GPGPU-Sim PTX: simulation mode 0 (can change with PTX_SIM_MODE_FUNC environment variable:
               1=functional simulation only, 0=detailed performance simulator)
GPGPU-Sim: Configuration options:

-network_mode                           1 # Interconnection network mode
-inter_config_file   config_fermi_islip.icnt # Interconnection network config file
-gpgpu_ptx_use_cuobjdump                    1 # Use cuobjdump to extract ptx and sass from binaries
-gpgpu_experimental_lib_support                    0 # Try to extract code from cuda libraries [Broken because of unknown cudaGetExportTable]
-gpgpu_ptx_convert_to_ptxplus                    0 # Convert SASS (native ISA) to ptxplus and run ptxplus
-gpgpu_ptx_force_max_capability                   20 # Force maximum compute capability
-gpgpu_ptx_inst_debug_to_file                    0 # Dump executed instructions' debug information to file
-gpgpu_ptx_inst_debug_file       inst_debug.txt # Executed instructions' debug output file
-gpgpu_ptx_inst_debug_thread_uid                    1 # Thread UID for executed instructions' debug output
-gpgpu_simd_model                       1 # 1 = post-dominator
-gpgpu_shader_core_pipeline              2048:32 # shader core pipeline config, i.e., {<nthread>:<warpsize>}
-gpgpu_tex_cache:l1  16:128:24,L:R:m:N:L,F:128:4,128:2 # per-shader L1 texture cache  (READ-ONLY) config  {<nsets>:<bsize>:<assoc>,<rep>:<wr>:<alloc>:<wr_alloc>,<mshr>:<N>:<merge>,<mq>:<rf>}
-gpgpu_const_cache:l1 128:64:2,L:R:f:N:L,A:2:64,4 # per-shader L1 constant memory cache  (READ-ONLY) config  {<nsets>:<bsize>:<assoc>,<rep>:<wr>:<alloc>:<wr_alloc>,<mshr>:<N>:<merge>,<mq>} 
-gpgpu_cache:il1     8:128:4,L:R:f:N:L,A:2:48,4 # shader L1 instruction cache config  {<nsets>:<bsize>:<assoc>,<rep>:<wr>:<alloc>:<wr_alloc>,<mshr>:<N>:<merge>,<mq>} 
-gpgpu_cache:dl1     64:128:6,L:L:m:N:H,A:128:8,8 # per-shader L1 data cache config  {<nsets>:<bsize>:<assoc>,<rep>:<wr>:<alloc>:<wr_alloc>,<mshr>:<N>:<merge>,<mq> | none}
-gpgpu_cache:dl1PrefL1                 none # per-shader L1 data cache config  {<nsets>:<bsize>:<assoc>,<rep>:<wr>:<alloc>:<wr_alloc>,<mshr>:<N>:<merge>,<mq> | none}
-gpgpu_cache:dl1PrefShared                 none # per-shader L1 data cache config  {<nsets>:<bsize>:<assoc>,<rep>:<wr>:<alloc>:<wr_alloc>,<mshr>:<N>:<merge>,<mq> | none}
-gmem_skip_L1D                          1 # global memory access skip L1D cache (implements -Xptxas -dlcm=cg, default=no skip)
-gpgpu_perfect_mem                      0 # enable perfect memory mode (no cache miss)
-n_regfile_gating_group                    4 # group of lanes that should be read/written together)
-gpgpu_clock_gated_reg_file                    0 # enable clock gated reg file for power calculations
-gpgpu_clock_gated_lanes                    0 # enable clock gated lanes for power calculations
-gpgpu_shader_registers                65536 # Number of registers per shader core. Limits number of concurrent CTAs. (default 8192)
-gpgpu_shader_cta                      32 # Maximum number of concurrent CTAs in shader (default 8)
-gpgpu_num_cta_barriers                   16 # Maximum number of named barriers per CTA (default 16)
-gpgpu_n_clusters                      28 # number of processing clusters
-gpgpu_n_cores_per_cluster                    1 # number of simd cores per cluster
-gpgpu_n_cluster_ejection_buffer_size                    8 # number of packets in ejection buffer
-gpgpu_n_ldst_response_buffer_size                    2 # number of response packets in ld/st unit ejection buffer
-gpgpu_shmem_size                   16384 # Size of shared memory per shader core (default 16kB)
-gpgpu_shmem_size                   98304 # Size of shared memory per shader core (default 16kB)
-gpgpu_shmem_size_PrefL1                16384 # Size of shared memory per shader core (default 16kB)
-gpgpu_shmem_size_PrefShared                16384 # Size of shared memory per shader core (default 16kB)
-gpgpu_shmem_num_banks                   32 # Number of banks in the shared memory in each shader core (default 16)
-gpgpu_shmem_limited_broadcast                    0 # Limit shared memory to do one broadcast per cycle (default on)
-gpgpu_shmem_warp_parts                    1 # Number of portions a warp is divided into for shared memory bank conflict check 
-gpgpu_warpdistro_shader                   -1 # Specify which shader core to collect the warp size distribution from
-gpgpu_warp_issue_shader                    0 # Specify which shader core to collect the warp issue distribution from
-gpgpu_local_mem_map                    1 # Mapping from local memory space address to simulated GPU physical address space (default = enabled)
-gpgpu_num_reg_banks                   32 # Number of register banks (default = 8)
-gpgpu_reg_bank_use_warp_id                    0 # Use warp ID in mapping registers to banks (default = off)
-gpgpu_operand_collector_num_units_sp                   20 # number of collector units (default = 4)
-gpgpu_operand_collector_num_units_sfu                    4 # number of collector units (default = 4)
-gpgpu_operand_collector_num_units_mem                    8 # number of collector units (default = 2)
-gpgpu_operand_collector_num_units_gen                    0 # number of collector units (default = 0)
-gpgpu_operand_collector_num_in_ports_sp                    4 # number of collector unit in ports (default = 1)
-gpgpu_operand_collector_num_in_ports_sfu                    1 # number of collector unit in ports (default = 1)
-gpgpu_operand_collector_num_in_ports_mem                    1 # number of collector unit in ports (default = 1)
-gpgpu_operand_collector_num_in_ports_gen                    0 # number of collector unit in ports (default = 0)
-gpgpu_operand_collector_num_out_ports_sp                    4 # number of collector unit in ports (default = 1)
-gpgpu_operand_collector_num_out_ports_sfu                    1 # number of collector unit in ports (default = 1)
-gpgpu_operand_collector_num_out_ports_mem                    1 # number of collector unit in ports (default = 1)
-gpgpu_operand_collector_num_out_ports_gen                    0 # number of collector unit in ports (default = 0)
-gpgpu_coalesce_arch                   13 # Coalescing arch (default = 13, anything else is off for now)
-gpgpu_num_sched_per_core                    2 # Number of warp schedulers per core
-gpgpu_max_insn_issue_per_warp                    2 # Max number of instructions that can be issued per warp in one cycle by scheduler
-gpgpu_simt_core_sim_order                    1 # Select the simulation order of cores in a cluster (0=Fix, 1=Round-Robin)
-gpgpu_pipeline_widths        4,1,1,4,1,1,6 # Pipeline widths ID_OC_SP,ID_OC_SFU,ID_OC_MEM,OC_EX_SP,OC_EX_SFU,OC_EX_MEM,EX_WB
-gpgpu_num_sp_units                     4 # Number of SP units (default=1)
-gpgpu_num_sfu_units                    1 # Number of SF units (default=1)
-gpgpu_num_mem_units                    1 # Number if ldst units (default=1) WARNING: not hooked up to anything
-gpgpu_scheduler                      gto # Scheduler configuration: < lrr | gto | two_level_active > If two_level_active:<num_active_warps>:<inner_prioritization>:<outer_prioritization>For complete list of prioritization values see shader.h enum scheduler_prioritization_typeDefault: gto
-gpgpu_concurrent_kernel_sm                    0 # Support concurrent kernels on a SM (default = disabled)
-tlb_size                            4096 # Number of tlb entries per SM.
-gpgpu_dram_scheduler                    1 # 0 = fifo, 1 = FR-FCFS (defaul)
-gpgpu_dram_partition_queues              8:8:8:8 # i2$:$2d:d2$:$2i
-l2_ideal                               0 # Use a ideal L2 cache that always hit
-gpgpu_cache:dl2     64:128:16,L:B:m:W:L,A:1024:1024,4:0,32 # unified banked L2 data cache config  {<nsets>:<bsize>:<assoc>,<rep>:<wr>:<alloc>:<wr_alloc>,<mshr>:<N>:<merge>,<mq>}
-gpgpu_cache:dl2_texture_only                    0 # L2 cache used for texture only
-gpgpu_n_mem                           11 # number of memory modules (e.g. memory controllers) in gpu
-gpgpu_n_sub_partition_per_mchannel                    2 # number of memory subpartition in each memory module
-gpgpu_n_mem_per_ctrlr                    1 # number of memory chips per memory controller
-gpgpu_memlatency_stat                   14 # track and display latency statistics 0x2 enables MC, 0x4 enables queue logs
-gpgpu_frfcfs_dram_sched_queue_size                   64 # 0 = unlimited (default); # entries per chip
-gpgpu_dram_return_queue_size                  116 # 0 = unlimited (default); # entries per chip
-gpgpu_dram_buswidth                    4 # default = 4 bytes (8 bytes per cycle at DDR)
-gpgpu_dram_burst_length                    8 # Burst length of each DRAM request (default = 4 data bus cycle)
-dram_data_command_freq_ratio                    4 # Frequency ratio between DRAM data bus and command bus (default = 2 times, i.e. DDR)
-gpgpu_dram_timing_opt nbk=16:CCD=2:RRD=6:RCD=12:RAS=28:RP=12:RC=40: CL=12:WL=4:CDLR=5:WR=12:nbkgrp=1:CCDL=0:RTPL=0 # DRAM timing parameters = {nbk:tCCD:tRRD:tRCD:tRAS:tRP:tRC:CL:WL:tCDLR:tWR:nbkgrp:tCCDL:tRTPL}
-rop_latency                          120 # ROP queue latency (default 85)
-dram_latency                         100 # DRAM latency (default 30)
-gpgpu_mem_addr_mapping dramid@8;00000000.00000000.00000000.00000000.0000RRRR.RRRRRRRR.RBBBCCCC.BCCSSSSS # mapping memory address to dram model {dramid@<start bit>;<memory address map>}
-gpgpu_mem_addr_test                    0 # run sweep test to check address mapping for aliased address
-gpgpu_mem_address_mask                    1 # 0 = old addressing mask, 1 = new addressing mask, 2 = new add. mask + flipped bank sel and chip sel bits
-gpuwattch_xml_file  gpuwattch_geforcegtx1080ti.xml # GPUWattch XML file
-power_simulation_enabled                    1 # Turn on power simulator (1=On, 0=Off)
-power_per_cycle_dump                    0 # Dump detailed power output each cycle
-power_trace_enabled                    0 # produce a file for the power trace (1=On, 0=Off)
-power_trace_zlevel                     6 # Compression level of the power trace output log (0=no comp, 9=highest)
-steady_power_levels_enabled                    0 # produce a file for the steady power levels (1=On, 0=Off)
-steady_state_definition                  8:4 # allowed deviation:number of samples
-gpgpu_max_cycle                        0 # terminates gpu simulation early (0 = no limit)
-gpgpu_max_insn                         0 # terminates gpu simulation early (0 = no limit)
-gpgpu_max_cta                          0 # terminates gpu simulation early (0 = no limit)
-gpgpu_runtime_stat                   500 # display runtime statistics such as dram utilization {<freq>:<flag>}
-liveness_message_freq                    1 # Minimum number of seconds between simulation liveness messages (0 = always print)
-gpgpu_flush_l1_cache                    0 # Flush L1 cache at the end of each kernel call
-gpgpu_flush_l2_cache                    0 # Flush L2 cache at the end of each kernel call
-gpgpu_deadlock_detect                    0 # Stop the simulation at deadlock (1=on (default), 0=off)
-gpgpu_ptx_instruction_classification                    0 # if enabled will classify ptx instruction types per kernel (Max 255 kernels now)
-gpgpu_ptx_sim_mode                     0 # Select between Performance (default) or Functional simulation (1)
-gpgpu_clock_domains 1481.0:2962.0:1481.0:2750.0 # Clock Domain Frequencies in MhZ {<Core Clock>:<ICNT Clock>:<L2 Clock>:<DRAM Clock>}
-gpgpu_max_concurrent_kernel                    8 # maximum kernels that can run concurrently on GPU
-gpgpu_cflog_interval                    0 # Interval between each snapshot in control flow logger
-visualizer_enabled                     0 # Turn on visualizer output (1=On, 0=Off)
-visualizer_outputfile                 NULL # Specifies the output log file for visualizer
-visualizer_zlevel                      6 # Compression level of the visualizer output log (0=no comp, 9=highest)
-trace_enabled                          0 # Turn on traces
-trace_components                    none # comma seperated list of traces to enable. Complete list found in trace_streams.tup. Default none
-trace_sampling_core                    0 # The core which is printed using CORE_DPRINTF. Default 0
-trace_sampling_memory_partition                   -1 # The memory partition which is printed using MEMPART_DPRINTF. Default -1 (i.e. all)
-gddr_size                            8MB # Size of GDDR in MB/GB.(GLOBAL_HEAP_START, GLOBAL_HEAP_START + gddr_size) would be used for unmanged memory, (GLOBAL_HEAP_START + gddr_size, GLOBAL_HEAP_START + gddr_size*2) would be used for managed memory. 
-page_table_walk_latency                  100 # Average page table walk latency (in core cycle).
-eviction_policy                        0 # Select page eviction policy
-invalidate_clean                       0 # Should directly invalidate clean pages
-reserve_accessed_page_percent                    0 # Percentage of accessed pages reserved from eviction in hope that they will be accessed in next iteration.
-percentage_of_free_page_buffer                    0 # Percentage of free page buffer to trigger the page eviction.
-page_size                            4KB # GDDR page size, only 4KB/2MB avaliable.
-pcie_bandwidth                  16.0GB/s # PCI-e bandwidth per direction, in GB/s.
-enable_dma                             0 # Enable direct access to CPU memory
-multiply_dma_penalty                    2 # Oversubscription Multiplicative Penalty Factor for Adaptive DMA
-migrate_threshold                      8 # Access counter threshold for migrating the page from cpu to gpu
-sim_prof_enable                        1 # Enable gpgpu-sim profiler
-hardware_prefetch                      1 # Select gpgpu-sim hardware prefetcher
-hwprefetch_oversub                     1 # Select gpgpu-sim hardware prefetcher under over-subscription
-page_fault_latency                 66645 # Average fault latency (in core cycle).
-enable_accurate_simulation                    0 # Enable page fault functional simulation.
-enable_smart_runtime                    0 # Enable access pattern detection, policy engine, and adaptive memory management.
-enable_ptx_file_line_stats                    1 # Turn on PTX source line statistic profiling. (1 = On)
-ptx_line_stats_filename gpgpu_inst_stats.txt # Output file for PTX source line statistics.
-gpgpu_kernel_launch_latency               222150 # Kernel launch latency in cycles. Default: 0
-gpgpu_cdp_enabled                      0 # Turn on CDP
-save_embedded_ptx                      0 # saves ptx files embedded in binary as <n>.ptx
-keep                                   0 # keep intermediate files created by GPGPU-Sim when interfacing with external programs
-gpgpu_ptx_save_converted_ptxplus                    0 # Saved converted ptxplus to a file
-ptx_opcode_latency_int         4,13,4,5,145 # Opcode latencies for integers <ADD,MAX,MUL,MAD,DIV>Default 1,1,19,25,145
-ptx_opcode_latency_fp          4,13,4,5,39 # Opcode latencies for single precision floating points <ADD,MAX,MUL,MAD,DIV>Default 1,1,1,1,30
-ptx_opcode_latency_dp         8,19,8,8,330 # Opcode latencies for double precision floating points <ADD,MAX,MUL,MAD,DIV>Default 8,8,8,8,335
-ptx_opcode_initiation_int            1,2,2,2,8 # Opcode initiation intervals for integers <ADD,MAX,MUL,MAD,DIV>Default 1,1,4,4,32
-ptx_opcode_initiation_fp            1,2,1,1,4 # Opcode initiation intervals for single precision floating points <ADD,MAX,MUL,MAD,DIV>Default 1,1,1,1,5
-ptx_opcode_initiation_dp          1,2,1,1,130 # Opcode initiation intervals for double precision floating points <ADD,MAX,MUL,MAD,DIV>Default 8,8,8,8,130
-cdp_latency         7200,8000,100,12000,1600 # CDP API latency <cudaStreamCreateWithFlags, cudaGetParameterBufferV2_init_perWarp, cudaGetParameterBufferV2_perKernel, cudaLaunchDeviceV2_init_perWarp, cudaLaunchDevicV2_perKernel>Default 7200,8000,100,12000,1600
DRAM Timing Options:
nbk                                    16 # number of banks
CCD                                     2 # column to column delay
RRD                                     6 # minimal delay between activation of rows in different banks
RCD                                    12 # row to column delay
RAS                                    28 # time needed to activate row
RP                                     12 # time needed to precharge (deactivate) row
RC                                     40 # row cycle time
CDLR                                    5 # switching from write to read (changes tWTR)
WR                                     12 # last data-in to row precharge
CL                                     12 # CAS latency
WL                                      4 # Write latency
nbkgrp                                  1 # number of bank groups
CCDL                                    0 # column to column delay between accesses to different bank groups
RTPL                                    0 # read to precharge delay between accesses to different bank groups
Total number of memory sub partition = 22
addr_dec_mask[CHIP]  = 0000000000000000 	high:64 low:0
addr_dec_mask[BK]    = 0000000000007080 	high:15 low:7
addr_dec_mask[ROW]   = 000000000fff8000 	high:28 low:15
addr_dec_mask[COL]   = 0000000000000f7f 	high:12 low:0
addr_dec_mask[BURST] = 000000000000001f 	high:5 low:0
sub_partition_id_mask = 0000000000000080
GPGPU-Sim uArch: clock freqs: 1481000000.000000:2962000000.000000:1481000000.000000:2750000000.000000
GPGPU-Sim uArch: clock periods: 0.00000000067521944632:0.00000000033760972316:0.00000000067521944632:0.00000000036363636364
*** Initializing Memory Statistics ***
GPGPU-Sim uArch: interconnect node map (shaderID+MemID to icntID)
GPGPU-Sim uArch: Memory nodes ID start from index: 28
GPGPU-Sim uArch:    0   1   2   3   4   5   6
GPGPU-Sim uArch:    7   8   9  10  11  12  13
GPGPU-Sim uArch:   14  15  16  17  18  19  20
GPGPU-Sim uArch:   21  22  23  24  25  26  27
GPGPU-Sim uArch:   28  29  30  31  32  33  34
GPGPU-Sim uArch:   35  36  37  38  39  40  41
GPGPU-Sim uArch:   42  43  44  45  46  47  48
GPGPU-Sim uArch:   49
GPGPU-Sim uArch: interconnect node reverse map (icntID to shaderID+MemID)
GPGPU-Sim uArch: Memory nodes start from ID: 28
GPGPU-Sim uArch:    0   1   2   3   4   5   6
GPGPU-Sim uArch:    7   8   9  10  11  12  13
GPGPU-Sim uArch:   14  15  16  17  18  19  20
GPGPU-Sim uArch:   21  22  23  24  25  26  27
GPGPU-Sim uArch:   28  29  30  31  32  33  34
GPGPU-Sim uArch:   35  36  37  38  39  40  41
GPGPU-Sim uArch:   42  43  44  45  46  47  48
GPGPU-Sim uArch:   49
a525e8399390fa0aaed2cd7bb019ba01  /root/gpgpu-sim_UVMSmart/benchmarks/Managed/ra/main
GPGPU-Sim uArch: performance model initialization complete.
GPGPU-Sim PTX: __cudaRegisterFatBinary, fat_cubin_handle = 1, filename=default
self exe links to: /root/gpgpu-sim_UVMSmart/benchmarks/Managed/ra/main
Running md5sum using "md5sum /root/gpgpu-sim_UVMSmart/benchmarks/Managed/ra/main "
Parsing file _cuobjdump_complete_output_V9VwrE
######### cuobjdump parser ########
## Adding new section ELF
Adding arch: sm_20
Adding identifier: default
## Adding new section ELF
Adding arch: sm_20
Adding identifier: default
## Adding new section PTX
Adding ptx filename: _cuobjdump_1.ptx
Adding arch: sm_20
Adding identifier: default
Done parsing!!!
GPGPU-Sim PTX: __cudaRegisterFunction _Z6kernelPfS_S_m : hostFun 0x0x400ee1, fat_cubin_handle = 1
GPGPU-Sim PTX: instruction assembly for function '_Z6kernelPfS_S_m'...   done.
GPGPU-Sim PTX: finding reconvergence points for '_Z6kernelPfS_S_m'...
GPGPU-Sim PTX: Finding dominators for '_Z6kernelPfS_S_m'...
GPGPU-Sim PTX: Finding immediate dominators for '_Z6kernelPfS_S_m'...
GPGPU-Sim PTX: Finding postdominators for '_Z6kernelPfS_S_m'...
GPGPU-Sim PTX: Finding immediate postdominators for '_Z6kernelPfS_S_m'...
GPGPU-Sim PTX: pre-decoding instructions for '_Z6kernelPfS_S_m'...
GPGPU-Sim PTX: reconvergence points for _Z6kernelPfS_S_m...
GPGPU-Sim PTX:  1 (potential) branch divergence @  PC=0x090 (_1.ptx:45) @%p3 bra BB0_2;
GPGPU-Sim PTX:    immediate post dominator      @  PC=0x128 (_1.ptx:67) ret;
GPGPU-Sim PTX: ... end of reconvergence points for _Z6kernelPfS_S_m
GPGPU-Sim PTX: ... done pre-decoding instructions for '_Z6kernelPfS_S_m'.
GPGPU-Sim PTX: finished parsing EMBEDDED .ptx file _1.ptx
Adding _cuobjdump_1.ptx with cubin handle 1
GPGPU-Sim PTX: extracting embedded .ptx to temporary file "_ptx_wBVUzQ"
Running: cat _ptx_wBVUzQ | sed 's/.version 1.5/.version 1.4/' | sed 's/, texmode_independent//' | sed 's/\(\.extern \.const\[1\] .b8 \w\+\)\[\]/\1\[1\]/' | sed 's/const\[.\]/const\[0\]/g' > _ptx2_rSxjI2
GPGPU-Sim PTX: generating ptxinfo using "$CUDA_INSTALL_PATH/bin/ptxas --gpu-name=sm_20 -v _ptx2_rSxjI2 --output-file  /dev/null 2> _ptx_wBVUzQinfo"
GPGPU-Sim PTX: Kernel '_Z6kernelPfS_S_m' : regs=8, lmem=0, smem=0, cmem=68
GPGPU-Sim PTX: removing ptxinfo using "rm -f _ptx_wBVUzQ _ptx2_rSxjI2 _ptx_wBVUzQinfo"
GPGPU-Sim PTX: loading globals with explicit initializers... 
GPGPU-Sim PTX: finished loading globals (0 bytes total).
GPGPU-Sim PTX: loading constants with explicit initializers...  done.

GPGPU-Sim PTX: cudaLaunch for 0x0x400ee1 (mode=performance simulation) on stream 0
GPGPU-Sim PTX: pushing kernel '_Z6kernelPfS_S_m' to stream 0, gridDim= (4096,1,1) blockDim = (256,1,1) 
GPGPU-Sim uArch: Shader 1 bind to kernel 1 '_Z6kernelPfS_S_m'
GPGPU-Sim uArch: CTA/core = 8, limited by: threads
GPGPU-Sim uArch: Shader 2 bind to kernel 1 '_Z6kernelPfS_S_m'
GPGPU-Sim uArch: Shader 3 bind to kernel 1 '_Z6kernelPfS_S_m'
GPGPU-Sim uArch: Shader 4 bind to kernel 1 '_Z6kernelPfS_S_m'
GPGPU-Sim uArch: Shader 5 bind to kernel 1 '_Z6kernelPfS_S_m'
GPGPU-Sim uArch: Shader 6 bind to kernel 1 '_Z6kernelPfS_S_m'
GPGPU-Sim uArch: Shader 7 bind to kernel 1 '_Z6kernelPfS_S_m'
GPGPU-Sim uArch: Shader 8 bind to kernel 1 '_Z6kernelPfS_S_m'
GPGPU-Sim uArch: Shader 9 bind to kernel 1 '_Z6kernelPfS_S_m'
GPGPU-Sim uArch: Shader 10 bind to kernel 1 '_Z6kernelPfS_S_m'
GPGPU-Sim uArch: Shader 11 bind to kernel 1 '_Z6kernelPfS_S_m'
GPGPU-Sim uArch: Shader 12 bind to kernel 1 '_Z6kernelPfS_S_m'
GPGPU-Sim uArch: Shader 13 bind to kernel 1 '_Z6kernelPfS_S_m'
GPGPU-Sim uArch: Shader 14 bind to kernel 1 '_Z6kernelPfS_S_m'
GPGPU-Sim uArch: Shader 15 bind to kernel 1 '_Z6kernelPfS_S_m'
GPGPU-Sim uArch: Shader 16 bind to kernel 1 '_Z6kernelPfS_S_m'
GPGPU-Sim uArch: Shader 17 bind to kernel 1 '_Z6kernelPfS_S_m'
GPGPU-Sim uArch: Shader 18 bind to kernel 1 '_Z6kernelPfS_S_m'
GPGPU-Sim uArch: Shader 19 bind to kernel 1 '_Z6kernelPfS_S_m'
GPGPU-Sim uArch: Shader 20 bind to kernel 1 '_Z6kernelPfS_S_m'
GPGPU-Sim uArch: Shader 21 bind to kernel 1 '_Z6kernelPfS_S_m'
GPGPU-Sim uArch: Shader 22 bind to kernel 1 '_Z6kernelPfS_S_m'
GPGPU-Sim uArch: Shader 23 bind to kernel 1 '_Z6kernelPfS_S_m'
GPGPU-Sim uArch: Shader 24 bind to kernel 1 '_Z6kernelPfS_S_m'
GPGPU-Sim uArch: Shader 25 bind to kernel 1 '_Z6kernelPfS_S_m'
GPGPU-Sim uArch: Shader 26 bind to kernel 1 '_Z6kernelPfS_S_m'
GPGPU-Sim uArch: Shader 27 bind to kernel 1 '_Z6kernelPfS_S_m'
GPGPU-Sim uArch: Shader 0 bind to kernel 1 '_Z6kernelPfS_S_m'
GPGPU-Sim uArch: Shader 2 bind to kernel 1 '_Z6kernelPfS_S_m'
GPGPU-Sim uArch: Shader 6 bind to kernel 1 '_Z6kernelPfS_S_m'
GPGPU-Sim uArch: Shader 7 bind to kernel 1 '_Z6kernelPfS_S_m'
GPGPU-Sim uArch: Shader 12 bind to kernel 1 '_Z6kernelPfS_S_m'
GPGPU-Sim uArch: Shader 13 bind to kernel 1 '_Z6kernelPfS_S_m'
GPGPU-Sim uArch: Shader 14 bind to kernel 1 '_Z6kernelPfS_S_m'
GPGPU-Sim uArch: Shader 15 bind to kernel 1 '_Z6kernelPfS_S_m'
GPGPU-Sim uArch: Shader 19 bind to kernel 1 '_Z6kernelPfS_S_m'
GPGPU-Sim uArch: Shader 20 bind to kernel 1 '_Z6kernelPfS_S_m'
GPGPU-Sim uArch: Shader 23 bind to kernel 1 '_Z6kernelPfS_S_m'
GPGPU-Sim uArch: Shader 27 bind to kernel 1 '_Z6kernelPfS_S_m'
GPGPU-Sim uArch: Shader 10 bind to kernel 1 '_Z6kernelPfS_S_m'
GPGPU-Sim uArch: Shader 11 bind to kernel 1 '_Z6kernelPfS_S_m'
GPGPU-Sim uArch: Shader 12 bind to kernel 1 '_Z6kernelPfS_S_m'
GPGPU-Sim uArch: Shader 13 bind to kernel 1 '_Z6kernelPfS_S_m'
GPGPU-Sim uArch: Shader 14 bind to kernel 1 '_Z6kernelPfS_S_m'
GPGPU-Sim uArch: Shader 15 bind to kernel 1 '_Z6kernelPfS_S_m'
GPGPU-Sim uArch: Shader 17 bind to kernel 1 '_Z6kernelPfS_S_m'
GPGPU-Sim uArch: Shader 18 bind to kernel 1 '_Z6kernelPfS_S_m'
GPGPU-Sim uArch: Shader 19 bind to kernel 1 '_Z6kernelPfS_S_m'
GPGPU-Sim uArch: Shader 20 bind to kernel 1 '_Z6kernelPfS_S_m'
GPGPU-Sim uArch: Shader 22 bind to kernel 1 '_Z6kernelPfS_S_m'
GPGPU-Sim uArch: Shader 24 bind to kernel 1 '_Z6kernelPfS_S_m'
GPGPU-Sim uArch: Shader 25 bind to kernel 1 '_Z6kernelPfS_S_m'
GPGPU-Sim uArch: Shader 0 bind to kernel 1 '_Z6kernelPfS_S_m'
GPGPU-Sim uArch: Shader 1 bind to kernel 1 '_Z6kernelPfS_S_m'
GPGPU-Sim uArch: Shader 2 bind to kernel 1 '_Z6kernelPfS_S_m'
GPGPU-Sim uArch: Shader 3 bind to kernel 1 '_Z6kernelPfS_S_m'
GPGPU-Sim uArch: Shader 4 bind to kernel 1 '_Z6kernelPfS_S_m'
GPGPU-Sim uArch: Shader 5 bind to kernel 1 '_Z6kernelPfS_S_m'
GPGPU-Sim uArch: Shader 7 bind to kernel 1 '_Z6kernelPfS_S_m'
GPGPU-Sim uArch: Shader 8 bind to kernel 1 '_Z6kernelPfS_S_m'
GPGPU-Sim uArch: Shader 9 bind to kernel 1 '_Z6kernelPfS_S_m'
GPGPU-Sim uArch: Shader 27 bind to kernel 1 '_Z6kernelPfS_S_m'
GPGPU-Sim uArch: Shader 6 bind to kernel 1 '_Z6kernelPfS_S_m'
GPGPU-Sim uArch: Shader 9 bind to kernel 1 '_Z6kernelPfS_S_m'
GPGPU-Sim uArch: Shader 10 bind to kernel 1 '_Z6kernelPfS_S_m'
GPGPU-Sim uArch: Shader 14 bind to kernel 1 '_Z6kernelPfS_S_m'
GPGPU-Sim uArch: Shader 15 bind to kernel 1 '_Z6kernelPfS_S_m'
GPGPU-Sim uArch: Shader 17 bind to kernel 1 '_Z6kernelPfS_S_m'
GPGPU-Sim uArch: Shader 19 bind to kernel 1 '_Z6kernelPfS_S_m'
GPGPU-Sim uArch: Shader 23 bind to kernel 1 '_Z6kernelPfS_S_m'
GPGPU-Sim uArch: Shader 24 bind to kernel 1 '_Z6kernelPfS_S_m'
GPGPU-Sim uArch: Shader 1 bind to kernel 1 '_Z6kernelPfS_S_m'
GPGPU-Sim uArch: Shader 5 bind to kernel 1 '_Z6kernelPfS_S_m'
GPGPU-Sim uArch: Shader 6 bind to kernel 1 '_Z6kernelPfS_S_m'
GPGPU-Sim uArch: Shader 12 bind to kernel 1 '_Z6kernelPfS_S_m'
GPGPU-Sim uArch: Shader 21 bind to kernel 1 '_Z6kernelPfS_S_m'
GPGPU-Sim uArch: Shader 22 bind to kernel 1 '_Z6kernelPfS_S_m'
GPGPU-Sim uArch: Shader 25 bind to kernel 1 '_Z6kernelPfS_S_m'
GPGPU-Sim uArch: Shader 26 bind to kernel 1 '_Z6kernelPfS_S_m'
GPGPU-Sim uArch: Shader 3 bind to kernel 1 '_Z6kernelPfS_S_m'
GPGPU-Sim uArch: Shader 5 bind to kernel 1 '_Z6kernelPfS_S_m'
GPGPU-Sim uArch: Shader 7 bind to kernel 1 '_Z6kernelPfS_S_m'
GPGPU-Sim uArch: Shader 10 bind to kernel 1 '_Z6kernelPfS_S_m'
GPGPU-Sim uArch: Shader 11 bind to kernel 1 '_Z6kernelPfS_S_m'
GPGPU-Sim uArch: Shader 19 bind to kernel 1 '_Z6kernelPfS_S_m'
GPGPU-Sim uArch: Shader 20 bind to kernel 1 '_Z6kernelPfS_S_m'
GPGPU-Sim uArch: Shader 16 bind to kernel 1 '_Z6kernelPfS_S_m'
GPGPU-Sim uArch: Shader 17 bind to kernel 1 '_Z6kernelPfS_S_m'
GPGPU-Sim uArch: Shader 18 bind to kernel 1 '_Z6kernelPfS_S_m'
GPGPU-Sim uArch: Shader 19 bind to kernel 1 '_Z6kernelPfS_S_m'
GPGPU-Sim uArch: Shader 20 bind to kernel 1 '_Z6kernelPfS_S_m'
GPGPU-Sim uArch: Shader 21 bind to kernel 1 '_Z6kernelPfS_S_m'
GPGPU-Sim uArch: Shader 22 bind to kernel 1 '_Z6kernelPfS_S_m'
GPGPU-Sim uArch: Shader 23 bind to kernel 1 '_Z6kernelPfS_S_m'
GPGPU-Sim uArch: Shader 24 bind to kernel 1 '_Z6kernelPfS_S_m'
GPGPU-Sim uArch: Shader 25 bind to kernel 1 '_Z6kernelPfS_S_m'
GPGPU-Sim uArch: Shader 26 bind to kernel 1 '_Z6kernelPfS_S_m'
GPGPU-Sim uArch: Shader 27 bind to kernel 1 '_Z6kernelPfS_S_m'
GPGPU-Sim uArch: Shader 0 bind to kernel 1 '_Z6kernelPfS_S_m'
GPGPU-Sim uArch: Shader 1 bind to kernel 1 '_Z6kernelPfS_S_m'
GPGPU-Sim uArch: Shader 2 bind to kernel 1 '_Z6kernelPfS_S_m'
GPGPU-Sim uArch: Shader 3 bind to kernel 1 '_Z6kernelPfS_S_m'
GPGPU-Sim uArch: Shader 4 bind to kernel 1 '_Z6kernelPfS_S_m'
GPGPU-Sim uArch: Shader 5 bind to kernel 1 '_Z6kernelPfS_S_m'
GPGPU-Sim uArch: Shader 6 bind to kernel 1 '_Z6kernelPfS_S_m'
GPGPU-Sim uArch: Shader 7 bind to kernel 1 '_Z6kernelPfS_S_m'
GPGPU-Sim uArch: Shader 8 bind to kernel 1 '_Z6kernelPfS_S_m'
GPGPU-Sim uArch: Shader 9 bind to kernel 1 '_Z6kernelPfS_S_m'
GPGPU-Sim uArch: Shader 10 bind to kernel 1 '_Z6kernelPfS_S_m'
GPGPU-Sim uArch: Shader 11 bind to kernel 1 '_Z6kernelPfS_S_m'
GPGPU-Sim uArch: Shader 12 bind to kernel 1 '_Z6kernelPfS_S_m'
GPGPU-Sim uArch: Shader 13 bind to kernel 1 '_Z6kernelPfS_S_m'
GPGPU-Sim uArch: Shader 14 bind to kernel 1 '_Z6kernelPfS_S_m'
GPGPU-Sim uArch: Shader 15 bind to kernel 1 '_Z6kernelPfS_S_m'
GPGPU-Sim uArch: Shader 16 bind to kernel 1 '_Z6kernelPfS_S_m'
GPGPU-Sim uArch: Shader 17 bind to kernel 1 '_Z6kernelPfS_S_m'
GPGPU-Sim uArch: Shader 18 bind to kernel 1 '_Z6kernelPfS_S_m'
GPGPU-Sim uArch: Shader 22 bind to kernel 1 '_Z6kernelPfS_S_m'
GPGPU-Sim uArch: Shader 23 bind to kernel 1 '_Z6kernelPfS_S_m'
GPGPU-Sim uArch: Shader 24 bind to kernel 1 '_Z6kernelPfS_S_m'
GPGPU-Sim uArch: Shader 27 bind to kernel 1 '_Z6kernelPfS_S_m'
GPGPU-Sim uArch: Shader 0 bind to kernel 1 '_Z6kernelPfS_S_m'
GPGPU-Sim uArch: Shader 1 bind to kernel 1 '_Z6kernelPfS_S_m'
GPGPU-Sim uArch: Shader 2 bind to kernel 1 '_Z6kernelPfS_S_m'
GPGPU-Sim uArch: Shader 3 bind to kernel 1 '_Z6kernelPfS_S_m'
GPGPU-Sim uArch: Shader 4 bind to kernel 1 '_Z6kernelPfS_S_m'
GPGPU-Sim uArch: Shader 5 bind to kernel 1 '_Z6kernelPfS_S_m'
GPGPU-Sim uArch: Shader 7 bind to kernel 1 '_Z6kernelPfS_S_m'
GPGPU-Sim uArch: Shader 12 bind to kernel 1 '_Z6kernelPfS_S_m'
GPGPU-Sim uArch: Shader 21 bind to kernel 1 '_Z6kernelPfS_S_m'
GPGPU-Sim uArch: Shader 23 bind to kernel 1 '_Z6kernelPfS_S_m'
GPGPU-Sim uArch: Shader 24 bind to kernel 1 '_Z6kernelPfS_S_m'
GPGPU-Sim uArch: Shader 25 bind to kernel 1 '_Z6kernelPfS_S_m'
GPGPU-Sim uArch: Shader 26 bind to kernel 1 '_Z6kernelPfS_S_m'
GPGPU-Sim uArch: Shader 2 bind to kernel 1 '_Z6kernelPfS_S_m'
GPGPU-Sim uArch: Shader 4 bind to kernel 1 '_Z6kernelPfS_S_m'
GPGPU-Sim uArch: Shader 8 bind to kernel 1 '_Z6kernelPfS_S_m'
GPGPU-Sim uArch: Shader 9 bind to kernel 1 '_Z6kernelPfS_S_m'
GPGPU-Sim uArch: Shader 11 bind to kernel 1 '_Z6kernelPfS_S_m'
GPGPU-Sim uArch: Shader 12 bind to kernel 1 '_Z6kernelPfS_S_m'
GPGPU-Sim uArch: Shader 13 bind to kernel 1 '_Z6kernelPfS_S_m'
GPGPU-Sim uArch: Shader 17 bind to kernel 1 '_Z6kernelPfS_S_m'
GPGPU-Sim uArch: Shader 19 bind to kernel 1 '_Z6kernelPfS_S_m'
GPGPU-Sim uArch: Shader 21 bind to kernel 1 '_Z6kernelPfS_S_m'
GPGPU-Sim uArch: Shader 23 bind to kernel 1 '_Z6kernelPfS_S_m'
GPGPU-Sim uArch: Shader 24 bind to kernel 1 '_Z6kernelPfS_S_m'
GPGPU-Sim uArch: Shader 25 bind to kernel 1 '_Z6kernelPfS_S_m'
GPGPU-Sim uArch: Shader 26 bind to kernel 1 '_Z6kernelPfS_S_m'
GPGPU-Sim uArch: Shader 27 bind to kernel 1 '_Z6kernelPfS_S_m'
GPGPU-Sim uArch: Shader 0 bind to kernel 1 '_Z6kernelPfS_S_m'
GPGPU-Sim uArch: Shader 1 bind to kernel 1 '_Z6kernelPfS_S_m'
GPGPU-Sim uArch: Shader 3 bind to kernel 1 '_Z6kernelPfS_S_m'
GPGPU-Sim uArch: Shader 4 bind to kernel 1 '_Z6kernelPfS_S_m'
GPGPU-Sim uArch: Shader 6 bind to kernel 1 '_Z6kernelPfS_S_m'
GPGPU-Sim uArch: Shader 8 bind to kernel 1 '_Z6kernelPfS_S_m'
GPGPU-Sim uArch: Shader 9 bind to kernel 1 '_Z6kernelPfS_S_m'
GPGPU-Sim uArch: Shader 11 bind to kernel 1 '_Z6kernelPfS_S_m'
GPGPU-Sim uArch: Shader 12 bind to kernel 1 '_Z6kernelPfS_S_m'
GPGPU-Sim uArch: Shader 13 bind to kernel 1 '_Z6kernelPfS_S_m'
GPGPU-Sim uArch: Shader 15 bind to kernel 1 '_Z6kernelPfS_S_m'
GPGPU-Sim uArch: Shader 16 bind to kernel 1 '_Z6kernelPfS_S_m'
GPGPU-Sim uArch: Shader 17 bind to kernel 1 '_Z6kernelPfS_S_m'
GPGPU-Sim uArch: Shader 19 bind to kernel 1 '_Z6kernelPfS_S_m'
GPGPU-Sim uArch: Shader 20 bind to kernel 1 '_Z6kernelPfS_S_m'
GPGPU-Sim uArch: Shader 1 bind to kernel 1 '_Z6kernelPfS_S_m'
GPGPU-Sim uArch: Shader 4 bind to kernel 1 '_Z6kernelPfS_S_m'
GPGPU-Sim uArch: Shader 10 bind to kernel 1 '_Z6kernelPfS_S_m'
GPGPU-Sim uArch: Shader 9 bind to kernel 1 '_Z6kernelPfS_S_m'
GPGPU-Sim uArch: Shader 11 bind to kernel 1 '_Z6kernelPfS_S_m'
GPGPU-Sim uArch: Shader 12 bind to kernel 1 '_Z6kernelPfS_S_m'
GPGPU-Sim uArch: Shader 13 bind to kernel 1 '_Z6kernelPfS_S_m'
GPGPU-Sim uArch: Shader 14 bind to kernel 1 '_Z6kernelPfS_S_m'
GPGPU-Sim uArch: Shader 16 bind to kernel 1 '_Z6kernelPfS_S_m'
GPGPU-Sim uArch: Shader 17 bind to kernel 1 '_Z6kernelPfS_S_m'
GPGPU-Sim uArch: Shader 18 bind to kernel 1 '_Z6kernelPfS_S_m'
GPGPU-Sim uArch: Shader 20 bind to kernel 1 '_Z6kernelPfS_S_m'
GPGPU-Sim uArch: Shader 22 bind to kernel 1 '_Z6kernelPfS_S_m'
GPGPU-Sim uArch: Shader 23 bind to kernel 1 '_Z6kernelPfS_S_m'
GPGPU-Sim uArch: Shader 24 bind to kernel 1 '_Z6kernelPfS_S_m'
GPGPU-Sim uArch: Shader 25 bind to kernel 1 '_Z6kernelPfS_S_m'
GPGPU-Sim uArch: Shader 26 bind to kernel 1 '_Z6kernelPfS_S_m'
GPGPU-Sim uArch: Shader 27 bind to kernel 1 '_Z6kernelPfS_S_m'
GPGPU-Sim uArch: Shader 0 bind to kernel 1 '_Z6kernelPfS_S_m'
GPGPU-Sim uArch: Shader 1 bind to kernel 1 '_Z6kernelPfS_S_m'
GPGPU-Sim uArch: Shader 2 bind to kernel 1 '_Z6kernelPfS_S_m'
GPGPU-Sim uArch: Shader 3 bind to kernel 1 '_Z6kernelPfS_S_m'
GPGPU-Sim uArch: Shader 5 bind to kernel 1 '_Z6kernelPfS_S_m'
GPGPU-Sim uArch: Shader 6 bind to kernel 1 '_Z6kernelPfS_S_m'
GPGPU-Sim uArch: Shader 8 bind to kernel 1 '_Z6kernelPfS_S_m'
GPGPU-Sim uArch: Shader 21 bind to kernel 1 '_Z6kernelPfS_S_m'
GPGPU-Sim uArch: Shader 24 bind to kernel 1 '_Z6kernelPfS_S_m'
GPGPU-Sim uArch: Shader 25 bind to kernel 1 '_Z6kernelPfS_S_m'
GPGPU-Sim uArch: Shader 2 bind to kernel 1 '_Z6kernelPfS_S_m'
GPGPU-Sim uArch: Shader 5 bind to kernel 1 '_Z6kernelPfS_S_m'
GPGPU-Sim uArch: Shader 7 bind to kernel 1 '_Z6kernelPfS_S_m'
GPGPU-Sim uArch: Shader 10 bind to kernel 1 '_Z6kernelPfS_S_m'
GPGPU-Sim uArch: Shader 11 bind to kernel 1 '_Z6kernelPfS_S_m'
GPGPU-Sim uArch: Shader 13 bind to kernel 1 '_Z6kernelPfS_S_m'
GPGPU-Sim uArch: Shader 15 bind to kernel 1 '_Z6kernelPfS_S_m'
GPGPU-Sim uArch: Shader 16 bind to kernel 1 '_Z6kernelPfS_S_m'
GPGPU-Sim uArch: Shader 17 bind to kernel 1 '_Z6kernelPfS_S_m'
GPGPU-Sim uArch: Shader 19 bind to kernel 1 '_Z6kernelPfS_S_m'
GPGPU-Sim uArch: Shader 1 bind to kernel 1 '_Z6kernelPfS_S_m'
GPGPU-Sim uArch: Shader 2 bind to kernel 1 '_Z6kernelPfS_S_m'
GPGPU-Sim uArch: Shader 3 bind to kernel 1 '_Z6kernelPfS_S_m'
GPGPU-Sim uArch: Shader 4 bind to kernel 1 '_Z6kernelPfS_S_m'
GPGPU-Sim uArch: Shader 5 bind to kernel 1 '_Z6kernelPfS_S_m'
GPGPU-Sim uArch: Shader 6 bind to kernel 1 '_Z6kernelPfS_S_m'
GPGPU-Sim uArch: Shader 7 bind to kernel 1 '_Z6kernelPfS_S_m'
GPGPU-Sim uArch: Shader 11 bind to kernel 1 '_Z6kernelPfS_S_m'
GPGPU-Sim uArch: Shader 14 bind to kernel 1 '_Z6kernelPfS_S_m'
GPGPU-Sim uArch: Shader 15 bind to kernel 1 '_Z6kernelPfS_S_m'
GPGPU-Sim uArch: Shader 16 bind to kernel 1 '_Z6kernelPfS_S_m'
GPGPU-Sim uArch: Shader 17 bind to kernel 1 '_Z6kernelPfS_S_m'
GPGPU-Sim uArch: Shader 18 bind to kernel 1 '_Z6kernelPfS_S_m'
GPGPU-Sim uArch: Shader 22 bind to kernel 1 '_Z6kernelPfS_S_m'
GPGPU-Sim uArch: Shader 23 bind to kernel 1 '_Z6kernelPfS_S_m'
GPGPU-Sim uArch: Shader 24 bind to kernel 1 '_Z6kernelPfS_S_m'
GPGPU-Sim uArch: Shader 26 bind to kernel 1 '_Z6kernelPfS_S_m'
GPGPU-Sim uArch: Shader 0 bind to kernel 1 '_Z6kernelPfS_S_m'
GPGPU-Sim uArch: Shader 14 bind to kernel 1 '_Z6kernelPfS_S_m'
GPGPU-Sim uArch: Shader 15 bind to kernel 1 '_Z6kernelPfS_S_m'
GPGPU-Sim uArch: Shader 16 bind to kernel 1 '_Z6kernelPfS_S_m'
GPGPU-Sim uArch: Shader 17 bind to kernel 1 '_Z6kernelPfS_S_m'
GPGPU-Sim uArch: Shader 18 bind to kernel 1 '_Z6kernelPfS_S_m'
GPGPU-Sim uArch: Shader 19 bind to kernel 1 '_Z6kernelPfS_S_m'
GPGPU-Sim uArch: Shader 20 bind to kernel 1 '_Z6kernelPfS_S_m'
GPGPU-Sim uArch: Shader 21 bind to kernel 1 '_Z6kernelPfS_S_m'
GPGPU-Sim uArch: Shader 22 bind to kernel 1 '_Z6kernelPfS_S_m'
GPGPU-Sim uArch: Shader 23 bind to kernel 1 '_Z6kernelPfS_S_m'
GPGPU-Sim uArch: Shader 24 bind to kernel 1 '_Z6kernelPfS_S_m'
GPGPU-Sim uArch: Shader 25 bind to kernel 1 '_Z6kernelPfS_S_m'
GPGPU-Sim uArch: Shader 26 bind to kernel 1 '_Z6kernelPfS_S_m'
GPGPU-Sim uArch: Shader 27 bind to kernel 1 '_Z6kernelPfS_S_m'
GPGPU-Sim uArch: Shader 0 bind to kernel 1 '_Z6kernelPfS_S_m'
GPGPU-Sim uArch: Shader 1 bind to kernel 1 '_Z6kernelPfS_S_m'
GPGPU-Sim uArch: Shader 2 bind to kernel 1 '_Z6kernelPfS_S_m'
GPGPU-Sim uArch: Shader 3 bind to kernel 1 '_Z6kernelPfS_S_m'
GPGPU-Sim uArch: Shader 4 bind to kernel 1 '_Z6kernelPfS_S_m'
GPGPU-Sim uArch: Shader 5 bind to kernel 1 '_Z6kernelPfS_S_m'
GPGPU-Sim uArch: Shader 6 bind to kernel 1 '_Z6kernelPfS_S_m'
GPGPU-Sim uArch: Shader 7 bind to kernel 1 '_Z6kernelPfS_S_m'
GPGPU-Sim uArch: Shader 8 bind to kernel 1 '_Z6kernelPfS_S_m'
GPGPU-Sim uArch: Shader 9 bind to kernel 1 '_Z6kernelPfS_S_m'
GPGPU-Sim uArch: Shader 10 bind to kernel 1 '_Z6kernelPfS_S_m'
GPGPU-Sim uArch: Shader 11 bind to kernel 1 '_Z6kernelPfS_S_m'
GPGPU-Sim uArch: Shader 12 bind to kernel 1 '_Z6kernelPfS_S_m'
GPGPU-Sim uArch: Shader 13 bind to kernel 1 '_Z6kernelPfS_S_m'
GPGPU-Sim uArch: Shader 14 bind to kernel 1 '_Z6kernelPfS_S_m'
GPGPU-Sim uArch: Shader 17 bind to kernel 1 '_Z6kernelPfS_S_m'
GPGPU-Sim uArch: Shader 18 bind to kernel 1 '_Z6kernelPfS_S_m'
GPGPU-Sim uArch: Shader 19 bind to kernel 1 '_Z6kernelPfS_S_m'
GPGPU-Sim uArch: Shader 23 bind to kernel 1 '_Z6kernelPfS_S_m'
GPGPU-Sim uArch: Shader 25 bind to kernel 1 '_Z6kernelPfS_S_m'
GPGPU-Sim uArch: Shader 26 bind to kernel 1 '_Z6kernelPfS_S_m'
GPGPU-Sim uArch: Shader 0 bind to kernel 1 '_Z6kernelPfS_S_m'
GPGPU-Sim uArch: Shader 4 bind to kernel 1 '_Z6kernelPfS_S_m'
GPGPU-Sim uArch: Shader 5 bind to kernel 1 '_Z6kernelPfS_S_m'
GPGPU-Sim uArch: Shader 7 bind to kernel 1 '_Z6kernelPfS_S_m'
GPGPU-Sim uArch: Shader 8 bind to kernel 1 '_Z6kernelPfS_S_m'
GPGPU-Sim uArch: Shader 9 bind to kernel 1 '_Z6kernelPfS_S_m'
GPGPU-Sim uArch: Shader 12 bind to kernel 1 '_Z6kernelPfS_S_m'
GPGPU-Sim uArch: Shader 13 bind to kernel 1 '_Z6kernelPfS_S_m'
GPGPU-Sim uArch: Shader 2 bind to kernel 1 '_Z6kernelPfS_S_m'
GPGPU-Sim uArch: Shader 4 bind to kernel 1 '_Z6kernelPfS_S_m'
GPGPU-Sim uArch: Shader 7 bind to kernel 1 '_Z6kernelPfS_S_m'
GPGPU-Sim uArch: Shader 10 bind to kernel 1 '_Z6kernelPfS_S_m'
GPGPU-Sim uArch: Shader 17 bind to kernel 1 '_Z6kernelPfS_S_m'
GPGPU-Sim uArch: Shader 22 bind to kernel 1 '_Z6kernelPfS_S_m'
GPGPU-Sim uArch: Shader 25 bind to kernel 1 '_Z6kernelPfS_S_m'
GPGPU-Sim uArch: Shader 2 bind to kernel 1 '_Z6kernelPfS_S_m'
GPGPU-Sim uArch: Shader 12 bind to kernel 1 '_Z6kernelPfS_S_m'
GPGPU-Sim uArch: Shader 15 bind to kernel 1 '_Z6kernelPfS_S_m'
GPGPU-Sim uArch: Shader 20 bind to kernel 1 '_Z6kernelPfS_S_m'
GPGPU-Sim uArch: Shader 21 bind to kernel 1 '_Z6kernelPfS_S_m'
GPGPU-Sim uArch: Shader 24 bind to kernel 1 '_Z6kernelPfS_S_m'
GPGPU-Sim uArch: Shader 25 bind to kernel 1 '_Z6kernelPfS_S_m'
GPGPU-Sim uArch: Shader 26 bind to kernel 1 '_Z6kernelPfS_S_m'
GPGPU-Sim uArch: Shader 27 bind to kernel 1 '_Z6kernelPfS_S_m'
GPGPU-Sim uArch: Shader 0 bind to kernel 1 '_Z6kernelPfS_S_m'
GPGPU-Sim uArch: Shader 1 bind to kernel 1 '_Z6kernelPfS_S_m'
GPGPU-Sim uArch: Shader 2 bind to kernel 1 '_Z6kernelPfS_S_m'
GPGPU-Sim uArch: Shader 5 bind to kernel 1 '_Z6kernelPfS_S_m'
GPGPU-Sim uArch: Shader 6 bind to kernel 1 '_Z6kernelPfS_S_m'
GPGPU-Sim uArch: Shader 8 bind to kernel 1 '_Z6kernelPfS_S_m'
GPGPU-Sim uArch: Shader 9 bind to kernel 1 '_Z6kernelPfS_S_m'
GPGPU-Sim uArch: Shader 11 bind to kernel 1 '_Z6kernelPfS_S_m'
GPGPU-Sim uArch: Shader 13 bind to kernel 1 '_Z6kernelPfS_S_m'
GPGPU-Sim uArch: Shader 14 bind to kernel 1 '_Z6kernelPfS_S_m'
GPGPU-Sim uArch: Shader 18 bind to kernel 1 '_Z6kernelPfS_S_m'
GPGPU-Sim uArch: Shader 19 bind to kernel 1 '_Z6kernelPfS_S_m'
Destroy streams for kernel 1: size 0
kernel_name = _Z6kernelPfS_S_m 
kernel_launch_uid = 1 
gpu_sim_cycle = 12321981
gpu_sim_insn = 21149782
gpu_ipc =       1.7164
gpu_tot_sim_cycle = 12544131
gpu_tot_sim_insn = 21149782
gpu_tot_ipc =       1.6860
gpu_tot_issued_cta = 4096
max_total_param_size = 0
gpu_stall_dramfull = 0
gpu_stall_icnt2sh    = 429
partiton_reqs_in_parallel = 271083582
partiton_reqs_in_parallel_total    = 0
partiton_level_parallism =      22.0000
partiton_level_parallism_total  =      21.6104
partiton_reqs_in_parallel_util = 271083582
partiton_reqs_in_parallel_util_total    = 0
gpu_sim_cycle_parition_util = 12321981
gpu_tot_sim_cycle_parition_util    = 0
partiton_level_parallism_util =      22.0000
partiton_level_parallism_util_total  =      22.0000
partiton_replys_in_parallel = 31570
partiton_replys_in_parallel_total    = 0
L2_BW  =       0.2428 GB/Sec
L2_BW_total  =       0.2385 GB/Sec
gpu_total_sim_rate=2045

========= Core cache stats =========
L1I_cache:
	L1I_total_cache_accesses = 444336
	L1I_total_cache_misses = 3396
	L1I_total_cache_miss_rate = 0.0076
	L1I_total_cache_pending_hits = 0
	L1I_total_cache_reservation_fails = 6846
L1D_cache:
	L1D_cache_core[0]: Access = 0, Miss = 0, Miss_rate = -nan, Pending_hits = 0, Reservation_fails = 0
	L1D_cache_core[1]: Access = 0, Miss = 0, Miss_rate = -nan, Pending_hits = 0, Reservation_fails = 0
	L1D_cache_core[2]: Access = 0, Miss = 0, Miss_rate = -nan, Pending_hits = 0, Reservation_fails = 0
	L1D_cache_core[3]: Access = 0, Miss = 0, Miss_rate = -nan, Pending_hits = 0, Reservation_fails = 0
	L1D_cache_core[4]: Access = 0, Miss = 0, Miss_rate = -nan, Pending_hits = 0, Reservation_fails = 0
	L1D_cache_core[5]: Access = 0, Miss = 0, Miss_rate = -nan, Pending_hits = 0, Reservation_fails = 0
	L1D_cache_core[6]: Access = 0, Miss = 0, Miss_rate = -nan, Pending_hits = 0, Reservation_fails = 0
	L1D_cache_core[7]: Access = 0, Miss = 0, Miss_rate = -nan, Pending_hits = 0, Reservation_fails = 0
	L1D_cache_core[8]: Access = 0, Miss = 0, Miss_rate = -nan, Pending_hits = 0, Reservation_fails = 0
	L1D_cache_core[9]: Access = 0, Miss = 0, Miss_rate = -nan, Pending_hits = 0, Reservation_fails = 0
	L1D_cache_core[10]: Access = 0, Miss = 0, Miss_rate = -nan, Pending_hits = 0, Reservation_fails = 0
	L1D_cache_core[11]: Access = 0, Miss = 0, Miss_rate = -nan, Pending_hits = 0, Reservation_fails = 0
	L1D_cache_core[12]: Access = 0, Miss = 0, Miss_rate = -nan, Pending_hits = 0, Reservation_fails = 0
	L1D_cache_core[13]: Access = 0, Miss = 0, Miss_rate = -nan, Pending_hits = 0, Reservation_fails = 0
	L1D_cache_core[14]: Access = 0, Miss = 0, Miss_rate = -nan, Pending_hits = 0, Reservation_fails = 0
	L1D_cache_core[15]: Access = 0, Miss = 0, Miss_rate = -nan, Pending_hits = 0, Reservation_fails = 0
	L1D_cache_core[16]: Access = 0, Miss = 0, Miss_rate = -nan, Pending_hits = 0, Reservation_fails = 0
	L1D_cache_core[17]: Access = 0, Miss = 0, Miss_rate = -nan, Pending_hits = 0, Reservation_fails = 0
	L1D_cache_core[18]: Access = 0, Miss = 0, Miss_rate = -nan, Pending_hits = 0, Reservation_fails = 0
	L1D_cache_core[19]: Access = 0, Miss = 0, Miss_rate = -nan, Pending_hits = 0, Reservation_fails = 0
	L1D_cache_core[20]: Access = 0, Miss = 0, Miss_rate = -nan, Pending_hits = 0, Reservation_fails = 0
	L1D_cache_core[21]: Access = 0, Miss = 0, Miss_rate = -nan, Pending_hits = 0, Reservation_fails = 0
	L1D_cache_core[22]: Access = 0, Miss = 0, Miss_rate = -nan, Pending_hits = 0, Reservation_fails = 0
	L1D_cache_core[23]: Access = 0, Miss = 0, Miss_rate = -nan, Pending_hits = 0, Reservation_fails = 0
	L1D_cache_core[24]: Access = 0, Miss = 0, Miss_rate = -nan, Pending_hits = 0, Reservation_fails = 0
	L1D_cache_core[25]: Access = 0, Miss = 0, Miss_rate = -nan, Pending_hits = 0, Reservation_fails = 0
	L1D_cache_core[26]: Access = 0, Miss = 0, Miss_rate = -nan, Pending_hits = 0, Reservation_fails = 0
	L1D_cache_core[27]: Access = 0, Miss = 0, Miss_rate = -nan, Pending_hits = 0, Reservation_fails = 0
	L1D_total_cache_accesses = 0
	L1D_total_cache_misses = 0
	L1D_total_cache_pending_hits = 0
	L1D_total_cache_reservation_fails = 0
	L1D_cache_data_port_util = 0.000
	L1D_cache_fill_port_util = 0.000
L1C_cache:
	L1C_total_cache_accesses = 131072
	L1C_total_cache_misses = 1792
	L1C_total_cache_miss_rate = 0.0137
	L1C_total_cache_pending_hits = 0
	L1C_total_cache_reservation_fails = 4886
L1T_cache:
	L1T_total_cache_accesses = 0
	L1T_total_cache_misses = 0
	L1T_total_cache_pending_hits = 0
	L1T_total_cache_reservation_fails = 0

Total_core_cache_stats:
	Total_core_cache_stats_breakdown[GLOBAL_ACC_R][HIT] = 0
	Total_core_cache_stats_breakdown[GLOBAL_ACC_R][HIT_RESERVED] = 0
	Total_core_cache_stats_breakdown[GLOBAL_ACC_R][MISS] = 0
	Total_core_cache_stats_breakdown[GLOBAL_ACC_R][RESERVATION_FAIL] = 0
	Total_core_cache_stats_breakdown[LOCAL_ACC_R][HIT] = 0
	Total_core_cache_stats_breakdown[LOCAL_ACC_R][HIT_RESERVED] = 0
	Total_core_cache_stats_breakdown[LOCAL_ACC_R][MISS] = 0
	Total_core_cache_stats_breakdown[LOCAL_ACC_R][RESERVATION_FAIL] = 0
	Total_core_cache_stats_breakdown[CONST_ACC_R][HIT] = 129280
	Total_core_cache_stats_breakdown[CONST_ACC_R][HIT_RESERVED] = 0
	Total_core_cache_stats_breakdown[CONST_ACC_R][MISS] = 1792
	Total_core_cache_stats_breakdown[CONST_ACC_R][RESERVATION_FAIL] = 4886
	Total_core_cache_stats_breakdown[TEXTURE_ACC_R][HIT] = 0
	Total_core_cache_stats_breakdown[TEXTURE_ACC_R][HIT_RESERVED] = 0
	Total_core_cache_stats_breakdown[TEXTURE_ACC_R][MISS] = 0
	Total_core_cache_stats_breakdown[TEXTURE_ACC_R][RESERVATION_FAIL] = 0
	Total_core_cache_stats_breakdown[GLOBAL_ACC_W][HIT] = 0
	Total_core_cache_stats_breakdown[GLOBAL_ACC_W][HIT_RESERVED] = 0
	Total_core_cache_stats_breakdown[GLOBAL_ACC_W][MISS] = 0
	Total_core_cache_stats_breakdown[GLOBAL_ACC_W][RESERVATION_FAIL] = 0
	Total_core_cache_stats_breakdown[LOCAL_ACC_W][HIT] = 0
	Total_core_cache_stats_breakdown[LOCAL_ACC_W][HIT_RESERVED] = 0
	Total_core_cache_stats_breakdown[LOCAL_ACC_W][MISS] = 0
	Total_core_cache_stats_breakdown[LOCAL_ACC_W][RESERVATION_FAIL] = 0
	Total_core_cache_stats_breakdown[L1_WRBK_ACC][HIT] = 0
	Total_core_cache_stats_breakdown[L1_WRBK_ACC][HIT_RESERVED] = 0
	Total_core_cache_stats_breakdown[L1_WRBK_ACC][MISS] = 0
	Total_core_cache_stats_breakdown[L1_WRBK_ACC][RESERVATION_FAIL] = 0
	Total_core_cache_stats_breakdown[L2_WRBK_ACC][HIT] = 0
	Total_core_cache_stats_breakdown[L2_WRBK_ACC][HIT_RESERVED] = 0
	Total_core_cache_stats_breakdown[L2_WRBK_ACC][MISS] = 0
	Total_core_cache_stats_breakdown[L2_WRBK_ACC][RESERVATION_FAIL] = 0
	Total_core_cache_stats_breakdown[INST_ACC_R][HIT] = 440940
	Total_core_cache_stats_breakdown[INST_ACC_R][HIT_RESERVED] = 0
	Total_core_cache_stats_breakdown[INST_ACC_R][MISS] = 3396
	Total_core_cache_stats_breakdown[INST_ACC_R][RESERVATION_FAIL] = 6846
	Total_core_cache_stats_breakdown[L1_WR_ALLOC_R][HIT] = 0
	Total_core_cache_stats_breakdown[L1_WR_ALLOC_R][HIT_RESERVED] = 0
	Total_core_cache_stats_breakdown[L1_WR_ALLOC_R][MISS] = 0
	Total_core_cache_stats_breakdown[L1_WR_ALLOC_R][RESERVATION_FAIL] = 0
	Total_core_cache_stats_breakdown[L2_WR_ALLOC_R][HIT] = 0
	Total_core_cache_stats_breakdown[L2_WR_ALLOC_R][HIT_RESERVED] = 0
	Total_core_cache_stats_breakdown[L2_WR_ALLOC_R][MISS] = 0
	Total_core_cache_stats_breakdown[L2_WR_ALLOC_R][RESERVATION_FAIL] = 0
	Total_core_cache_stats_breakdown[CONST_ACC_R][TOTAL_ACCESS] = 131072
	Total_core_cache_stats_breakdown[INST_ACC_R][TOTAL_ACCESS] = 444336
Shader 0 warp_id issue ditsribution:
warp_id:
0, 1, 2, 3, 4, 5, 6, 7, 8, 9, 10, 11, 12, 13, 14, 15, 16, 17, 18, 19, 20, 21, 22, 23, 24, 25, 26, 27, 28, 29, 30, 31, 32, 33, 34, 35, 36, 37, 38, 39, 40, 41, 42, 43, 44, 45, 46, 47, 48, 49, 50, 51, 52, 53, 54, 55, 56, 57, 58, 59, 60, 61, 62, 63, 
distro:
525, 546, 504, 546, 525, 525, 546, 462, 546, 525, 504, 546, 546, 483, 546, 567, 483, 525, 504, 462, 525, 525, 462, 504, 504, 483, 504, 525, 462, 504, 546, 462, 546, 462, 483, 525, 504, 462, 525, 525, 483, 525, 504, 462, 525, 525, 441, 525, 525, 420, 546, 525, 441, 525, 546, 420, 588, 462, 462, 525, 525, 462, 504, 504, 
gpgpu_n_tot_thrd_icount = 27011456
gpgpu_n_tot_w_icount = 844108
gpgpu_n_stall_shd_mem = 4896
gpgpu_n_mem_read_local = 0
gpgpu_n_mem_write_local = 0
gpgpu_n_mem_read_global = 20972
gpgpu_n_mem_write_global = 10486
gpgpu_n_mem_texture = 0
gpgpu_n_mem_const = 28
gpgpu_n_load_insn  = 20972
gpgpu_n_store_insn = 10486
gpgpu_n_shmem_insn = 0
gpgpu_n_tex_insn = 0
gpgpu_n_const_mem_insn = 0
gpgpu_n_param_mem_insn = 4194304
gpgpu_n_shmem_bkconflict = 0
gpgpu_n_cache_bkconflict = 0
gpgpu_n_intrawarp_mshr_merge = 0
gpgpu_n_cmem_portconflict = 4886
gpgpu_stall_shd_mem[c_mem][bk_conf] = 4886
gpgpu_stall_shd_mem[c_mem][mshr_rc] = 0
gpgpu_stall_shd_mem[c_mem][icnt_rc] = 0
gpgpu_stall_shd_mem[c_mem][data_port_stall] = 0
gpgpu_stall_shd_mem[t_mem][mshr_rc] = 0
gpgpu_stall_shd_mem[t_mem][icnt_rc] = 0
gpgpu_stall_shd_mem[t_mem][data_port_stall] = 0
gpgpu_stall_shd_mem[s_mem][bk_conf] = 0
gpgpu_stall_shd_mem[gl_mem][bk_conf] = 0
gpgpu_stall_shd_mem[gl_mem][coal_stall] = 0
gpgpu_stall_shd_mem[gl_mem][data_port_stall] = 0
gpgpu_stall_shd_mem[g_mem_ld][mshr_rc] = 0
gpgpu_stall_shd_mem[g_mem_ld][icnt_rc] = 10
gpgpu_stall_shd_mem[g_mem_ld][wb_icnt_rc] = 0
gpgpu_stall_shd_mem[g_mem_ld][wb_rsrv_fail] = 0
gpgpu_stall_shd_mem[g_mem_st][mshr_rc] = 0
gpgpu_stall_shd_mem[g_mem_st][icnt_rc] = 0
gpgpu_stall_shd_mem[g_mem_st][wb_icnt_rc] = 0
gpgpu_stall_shd_mem[g_mem_st][wb_rsrv_fail] = 0
gpgpu_stall_shd_mem[l_mem_ld][mshr_rc] = 0
gpgpu_stall_shd_mem[l_mem_ld][icnt_rc] = 0
gpgpu_stall_shd_mem[l_mem_ld][wb_icnt_rc] = 0
gpgpu_stall_shd_mem[l_mem_ld][wb_rsrv_fail] = 0
gpgpu_stall_shd_mem[l_mem_st][mshr_rc] = 0
gpgpu_stall_shd_mem[l_mem_st][icnt_rc] = 0
gpgpu_stall_shd_mem[l_mem_ld][wb_icnt_rc] = 0
gpgpu_stall_shd_mem[l_mem_ld][wb_rsrv_fail] = 0
gpu_reg_bank_conflict_stalls = 0
Warp Occupancy Distribution:
Stall:60836	W0_Idle:375729916	W0_Scoreboard:313448052	W1:188748	W2:0	W3:0	W4:0	W5:0	W6:0	W7:0	W8:0	W9:0	W10:0	W11:0	W12:0	W13:0	W14:0	W15:0	W16:0	W17:0	W18:0	W19:0	W20:0	W21:0	W22:0	W23:0	W24:0	W25:0	W26:0	W27:0	W28:0	W29:0	W30:0	W31:0	W32:655360
traffic_breakdown_coretomem[CONST_ACC_R] = 224 {8:28,}
traffic_breakdown_coretomem[GLOBAL_ACC_R] = 167776 {8:20972,}
traffic_breakdown_coretomem[GLOBAL_ACC_W] = 419440 {40:10486,}
traffic_breakdown_coretomem[INST_ACC_R] = 672 {8:84,}
traffic_breakdown_memtocore[CONST_ACC_R] = 2016 {72:28,}
traffic_breakdown_memtocore[GLOBAL_ACC_R] = 838880 {40:20972,}
traffic_breakdown_memtocore[GLOBAL_ACC_W] = 83888 {8:10486,}
traffic_breakdown_memtocore[INST_ACC_R] = 11424 {136:84,}
maxmrqlatency = 220 
maxdqlatency = 0 
maxmflatency = 637465 
averagemflatency = 94216 
max_icnt2mem_latency = 637179 
max_icnt2sh_latency = 12544130 
mrq_lat_table:21507 	697 	678 	7939 	4160 	1623 	920 	233 	0 	0 	0 	0 	0 	0 	0 	0 	0 	0 	0 	0 	0 	0 	0 	0 	0 	0 	0 	0 	0 	0 	0 	0 	
dq_lat_table:0 	0 	0 	0 	0 	0 	0 	0 	0 	0 	0 	0 	0 	0 	0 	0 	0 	0 	0 	0 	0 	0 	0 	0 	0 	0 	0 	0 	0 	0 	0 	0 	
mf_lat_table:0 	0 	0 	0 	0 	0 	0 	1826 	14153 	0 	0 	273 	282 	559 	1161 	2744 	1575 	2550 	5721 	642 	0 	0 	0 	0 	0 	0 	0 	0 	0 	0 	0 	0 	
icnt2mem_lat_table:0 	0 	926 	8 	16 	0 	15113 	0 	0 	0 	0 	288 	271 	561 	1569 	2408 	1497 	2554 	5717 	642 	0 	0 	0 	0 	
icnt2sh_lat_table:0 	0 	20971 	29 	0 	0 	0 	0 	0 	0 	0 	0 	0 	0 	0 	0 	0 	0 	0 	145 	975 	2063 	4003 	3300 	
mf_lat_pw_table:0 	0 	0 	0 	0 	0 	0 	3 	127 	0 	0 	13 	11 	22 	53 	109 	202 	205 	831 	89 	0 	0 	0 	0 	0 	0 	0 	0 	0 	0 	0 	0 	
maximum concurrent accesses to same row:
dram[0]:         8         8         8         8         8         8         8         8         8         8         8         8         8         8         8         8 
dram[1]:         8         8         8         8         8         8         8         8         8         8         8         8         8         8         8         8 
dram[2]:         8         8         8         8         8         8         8         8         8         8         8         8         8         8         8         8 
dram[3]:         8         8         8         8         8         8         8         8         8         8         8         8         8         8         8         8 
dram[4]:         8         8         8         8         8         8         8         8         8         8         8         8         8         8         8         8 
dram[5]:         8         8         8         8         8         8         8         8         8         8         8         8         8         8         8         8 
dram[6]:         8         8         8         8         8         8         8         8         8         8         8         8         8         8         8         8 
dram[7]:         8         8         8         8         8         8         8         8         8         8         8         8         8         8         8         8 
dram[8]:         8         8         8         8         8         8         8         8         8         8         8         8         8         8         8         8 
dram[9]:         8         8         8         8         8         8         8         8         8         8         8         8         8         8         8         8 
dram[10]:         8         8         8         8         8         8         8         8         8         8         8         8         8         8         8         8 
maximum service time to same row:
dram[0]:    968078    595198    604427    685698    995574    672731    754093    695739    564884    630768    590159    843651    810799    699209    750762    746724 
dram[1]:    577122    869667    669487    578070    627511    964424    633643    646242    769258    657976    601693    626695    630860    597482    634990    619754 
dram[2]:    598282    612479    633328    748117    554644    747611    711750    616523    646570    547151    594572    621040    550434    620705    697410    598422 
dram[3]:    759536   1199998    498966    601600    630728    590528    646310    542851    582769    839457    567028    852765    591778    685741    583811    722809 
dram[4]:    612869    685766    556409    568765    538677    579173   1113974    597542    545192    573278    607414    630432    521725    557213    527382    619995 
dram[5]:    597877    633309    531947    633355    577268    739818    474335    766132    613322    633765    786428    633796    941167    634754    746774    444495 
dram[6]:    494488    711246    810061    578676    609951    760115    619245    579611    753240    539338    562686    596570    641836    468314    685629   1136168 
dram[7]:    623780    601477    645597    578530    633306    646406    559585    626208    597416    600324    590945   1050194    633698    601211    640203    719493 
dram[8]:    736381    712531    669565    645660    600218    547958    657633    649844    578032    706139    599188    843646    541747    601182    696135    542873 
dram[9]:    600808    569621    658598    601979    590185    721497    634713    926696    519177    567811    579716    977702    739262    568747    528455    668723 
dram[10]:    583420    915157    591151    528012    600138    577512    657627    633449    687395    633028    648162    557183    531110    743324    696105    840265 
average row accesses per activate:
dram[0]:  1.973214  2.064815  2.047619  1.957447  1.945652  2.008197  2.153061  1.846847  1.967213  1.954955  2.104167  2.049020  2.179487  2.040404  2.000000  2.071429 
dram[1]:  2.221053  2.112360  1.990000  2.008547  2.044445  1.875000  2.215686  1.868852  1.847458  2.105263  2.034783  1.969072  2.114583  2.106796  2.083333  2.066667 
dram[2]:  1.910714  2.142857  2.074468  1.889908  2.027273  1.947826  1.860870  1.982456  2.090909  1.777778  2.113402  2.118812  2.098214  2.000000  2.211539  2.093750 
dram[3]:  2.130841  2.160494  2.120690  2.038835  1.980769  2.076087  1.932203  1.980769  2.000000  2.029412  1.848214  1.963303  2.117647  2.021053  2.018868  2.148515 
dram[4]:  2.183486  2.055556  1.857143  2.106195  2.128440  1.848214  2.134454  2.008547  1.955752  2.097087  2.034483  2.134831  1.963964  2.044643  2.063063  2.142857 
dram[5]:  1.989247  2.142857  2.066038  1.943925  2.181818  2.081633  1.833333  2.085714  2.000000  1.960784  2.010753  2.061404  2.086957  2.019608  2.233333  2.072727 
dram[6]:  1.928571  1.888889  2.017391  2.138298  1.896226  2.168421  2.017544  1.970297  1.957627  2.081818  2.052083  2.060606  2.189474  2.000000  2.067308  2.229167 
dram[7]:  2.144144  2.028846  1.911765  1.965812  2.066038  1.929293  1.917431  2.145833  1.991071  1.971154  2.099010  1.857143  2.000000  2.157895  2.151515  2.000000 
dram[8]:  1.970000  2.107527  2.129630  2.010870  2.104167  2.048077  1.880952  1.980000  2.190000  1.864865  1.905172  2.238095  2.033898  2.110092  2.066038  2.150442 
dram[9]:  2.100840  1.844828  1.918919  2.076190  1.890756  2.096774  2.064815  2.000000  2.194444  2.035398  1.980952  1.989247  2.205882  2.110092  1.936937  2.148515 
dram[10]:  1.972973  2.191011  1.899083  2.009615  2.180000  1.883495  2.076190  2.084112  2.030000  1.927273  2.224719  2.141593  1.954128  2.074766  2.200000  2.043011 
average row locality = 37757/18555 = 2.034869
number of total memory accesses made:
dram[0]:         0         0         0         0         0         0         0         0         0         0         0         0         0         0         0         0 
dram[1]:         0         0         0         0         0         0         0         0         0         0         0         0         0         0         0         0 
dram[2]:         0         0         0         0         0         0         0         0         0         0         0         0         0         0         0         0 
dram[3]:         0         0         0         0         0         0         0         0         0         0         0         0         0         0         0         0 
dram[4]:         0         0         0         0         0         0         0         0         0         0         0         0         0         0         0         0 
dram[5]:         0         0         0         0         0         0         0         0         0         0         0         0         0         0         0         0 
dram[6]:         0         0         0         0         0         0         0         0         0         0         0         0         0         0         0         0 
dram[7]:         0         0         0         0         0         0         0         0         0         0         0         0         0         0         0         0 
dram[8]:         0         0         0         0         0         0         0         0         0         0         0         0         0         0         0         0 
dram[9]:         0         0         0         0         0         0         0         0         0         0         0         0         0         0         0         0 
dram[10]:         0         0         0         0         0         0         0         0         0         0         0         0         0         0         0         0 
total accesses: 0
min_bank_accesses = 0!
min_chip_accesses = 0!
number of total read accesses:
dram[0]:       167       165       171       147       141       187       158       156       183       163       144       158       188       148       160       176 
dram[1]:       163       144       155       182       144       141       163       178       159       154       178       142       153       170       163       159 
dram[2]:       164       180       151       155       175       175       159       174       169       181       157       159       171       146       172       150 
dram[3]:       170       136       191       166       152       150       173       151       166       162       155       161       184       147       162       165 
dram[4]:       182       169       143       178       171       162       184       177       160       161       176       135       159       175       174       143 
dram[5]:       143       164       171       155       169       159       161       164       170       153       147       179       148       148       154       171 
dram[6]:       173       143       176       157       153       158       172       147       172       174       148       150       162       178       148       160 
dram[7]:       179       165       151       175       169       146       162       159       167       152       163       174       136       181       163       150 
dram[8]:       150       157       176       140       158       169       178       147       165       157       164       170       181       163       169       175 
dram[9]:       193       161       168       171       169       154       170       150       172       174       159       143       166       177       162       163 
dram[10]:       167       160       157       157       163       154       157       169       152       158       151       172       156       169       166       142 
total reads: 28578
bank skew: 193/135 = 1.43
chip skew: 2652/2548 = 1.04
number of total write accesses:
dram[0]:        54        58        44        37        38        58        53        49        57        54        58        51        67        54        52        56 
dram[1]:        48        44        44        53        40        39        63        50        59        46        56        49        50        47        62        58 
dram[2]:        50        60        44        51        48        49        55        52        61        59        48        55        64        48        58        51 
dram[3]:        58        39        55        44        54        41        55        55        56        45        52        53        68        45        52        52 
dram[4]:        56        53        39        60        61        45        70        58        61        55        60        55        59        54        55        52 
dram[5]:        42        46        48        53        47        45        48        55        54        47        40        56        44        58        47        57 
dram[6]:        43        44        56        44        48        48        58        52        59        55        49        54        46        62        67        54 
dram[7]:        59        46        44        55        50        45        47        47        56        53        49        60        44        65        50        50 
dram[8]:        47        39        54        45        44        44        59        51        54        50        57        65        59        67        50        68 
dram[9]:        57        53        45        47        56        41        53        46        65        56        49        42        59        53        53        54 
dram[10]:        52        35        50        52        55        40        61        54        51        54        47        70        57        53        54        48 
total reads: 9179
bank skew: 70/35 = 2.00
chip skew: 893/787 = 1.13
average mf latency per bank:
dram[0]:      63793     70018     76022     79395     83230     75486     86607     82895     76356     73466     91615     61360     76293     85120     65497     75758
dram[1]:      77922     71939     81198     73831     81944     73484     96658     71400     68679     78260     89508    100863     60375     62183     79683     61363
dram[2]:      75307     65990     69472     80729     80006     79107     76967     69175     83005     72527     69779     74987     86265     66078     67054     68958
dram[3]:      77679     84068     86344     96466     85901     60215     81121     75160     82769     83733     87989     89332     66350     71285     76769     58681
dram[4]:      74439     85479     94842     90209     97904     87491     93151     71576     92133     90520     83504     88831     93979     67465     79931     69309
dram[5]:     110276     68606     84763     73339     70537     77700     83322     78777     73951     93504     88740     75452     73322     86539     70472     68559
dram[6]:      87278     53273     77276     71704     83943     71319     62848     75738     61762     76760     93067     91901     73517     75129     77143     66930
dram[7]:      63371     80896     88466     69307     70306     78350     92736     79379     93782     83616     83411     73444     74449     76011     73869     85061
dram[8]:      81032     73260     89482     76454     78125     81392     83877     60835     84201     83743     79164     69436     77353     70827     67957     86135
dram[9]:      72155     90123     83931     71496     93473     79858     90808     78965     89797     82321     67658     97909     87799     74169     93917     69043
dram[10]:      80530     66266     68626     72430     80461     80888     84275     91248     76178     74023     86457     93142     90730     63591     69990     89192
maximum mf latency per bank:
dram[0]:     346728    592577    603997    637410    637409    617179    637411    621401    618659    592578    592576    592576    612381    617001    618674    594425
dram[1]:     618666    572883    637404    637411    618658    383317    637465    618659    449331    592584    618689    612808    603708    591508    605660    592573
dram[2]:     592570    570083    592575    618659    618660    618700    637420    618658    618650    592577    592589    617182    592580    594296    603708    618673
dram[3]:     592574    372083    618655    618659    618659    592570    618659    618658    618660    618653    594420    618660    594422    592139    595200    491010
dram[4]:     618658    618671    617171    618654    637413    617178    637421    618653    618659    592580    586593    618659    594275    600908    605667    618648
dram[5]:     618655    617182    618659    592576    572829    618686    637455    449324    618662    618660    618661    618661    334191    617011    592576    605661
dram[6]:     637411    522220    637414    617200    592586    617176    592585    637431    618684    618659    618661    592605    618660    618662    618655    605660
dram[7]:     592633    618659    618659    617176    613493    637412    621401    617185    618657    618660    606855    404156    617022    618657    617214    550296
dram[8]:     592595    618659    618682    600567    618647    574794    618653    575447    618660    618659    594428    618657    617035    594424    578402    618657
dram[9]:     618659    618664    617184    637422    618666    618664    592576    592562    617177    593959    618661    618653    617001    592627    617162    617181
dram[10]:     618671    592589    613493    583701    592580    618651    637413    592587    618663    618659    618659    606859    618658    602575    592638    617180
Memory Partition 0: 
Cache L2_bank_000:
MSHR contents

Cache L2_bank_001:
MSHR contents
MSHR: tag=0xc07fd480, atomic=0 1 entries : 0x7f0e8b14c2e0 :  mf: uid=627775, sid11:w13, part=0, addr=0xc07fd4e0, load , size=32, unknown  status = IN_PARTITION_DRAM (12544130), 

In Dram Latency Queue (total = 0): 
DRAM[0]: 16 bks, busW=4 BL=8 CL=12, tRRD=2 tCCD=6, tRCD=12 tRAS=28 tRP=12 tRC=40
n_cmd=22880112 n_nop=22865399 n_act=1708 n_pre=1692 n_req=3452 n_rd=10446 n_write=867 bw_util=0.0009889
n_activity=61701 dram_eff=0.3667
bk0: 668a 22874619i bk1: 660a 22874223i bk2: 684a 22874518i bk3: 588a 22875243i bk4: 564a 22875461i bk5: 748a 22873538i bk6: 632a 22874732i bk7: 624a 22874376i bk8: 732a 22873890i bk9: 652a 22873829i bk10: 576a 22874731i bk11: 632a 22874504i bk12: 752a 22873796i bk13: 592a 22874713i bk14: 640a 22874619i bk15: 702a 22873999i 
dram_util_bins: 0 0 0 0 0 0 0 0 0 0
dram_eff_bins: 0 0 0 0 0 0 0 0 0 0
mrqq: max=34 avg=0.002994
Memory Partition 1: 
Cache L2_bank_002:
MSHR contents

Cache L2_bank_003:
MSHR contents

In Dram Latency Queue (total = 0): 
DRAM[1]: 16 bks, busW=4 BL=8 CL=12, tRRD=2 tCCD=6, tRCD=12 tRAS=28 tRP=12 tRC=40
n_cmd=22880112 n_nop=22865802 n_act=1648 n_pre=1632 n_req=3356 n_rd=10192 n_write=838 bw_util=0.0009642
n_activity=61120 dram_eff=0.3609
bk0: 652a 22875146i bk1: 576a 22875663i bk2: 620a 22874975i bk3: 728a 22874083i bk4: 576a 22875441i bk5: 564a 22875095i bk6: 652a 22874508i bk7: 712a 22873956i bk8: 636a 22874139i bk9: 616a 22874990i bk10: 712a 22874321i bk11: 568a 22875359i bk12: 612a 22875099i bk13: 680a 22874866i bk14: 652a 22874501i bk15: 636a 22874663i 
dram_util_bins: 0 0 0 0 0 0 0 0 0 0
dram_eff_bins: 0 0 0 0 0 0 0 0 0 0
mrqq: max=36 avg=0.00252302
Memory Partition 2: 
Cache L2_bank_004:
MSHR contents

Cache L2_bank_005:
MSHR contents

In Dram Latency Queue (total = 0): 
DRAM[2]: 16 bks, busW=4 BL=8 CL=12, tRRD=2 tCCD=6, tRCD=12 tRAS=28 tRP=12 tRC=40
n_cmd=22880112 n_nop=22865233 n_act=1733 n_pre=1717 n_req=3491 n_rd=10552 n_write=877 bw_util=0.000999
n_activity=62216 dram_eff=0.3674
bk0: 656a 22874450i bk1: 720a 22874451i bk2: 604a 22875139i bk3: 620a 22874443i bk4: 700a 22874635i bk5: 700a 22874063i bk6: 636a 22874128i bk7: 696a 22873948i bk8: 676a 22873669i bk9: 724a 22873534i bk10: 628a 22875001i bk11: 636a 22874658i bk12: 684a 22874007i bk13: 584a 22874802i bk14: 688a 22874507i bk15: 600a 22875045i 
dram_util_bins: 0 0 0 0 0 0 0 0 0 0
dram_eff_bins: 0 0 0 0 0 0 0 0 0 0
mrqq: max=36 avg=0.0028582
Memory Partition 3: 
Cache L2_bank_006:
MSHR contents
MSHR: tag=0xc07fcc00, atomic=0 1 entries : 0x7f0e88ccad60 :  mf: uid=627776, sid25:w22, part=3, addr=0xc07fcc00, load , size=32, unknown  status = IN_PARTITION_DRAM (12544130), 

Cache L2_bank_007:
MSHR contents

In Dram Latency Queue (total = 0): 
DRAM[3]: 16 bks, busW=4 BL=8 CL=12, tRRD=2 tCCD=6, tRCD=12 tRAS=28 tRP=12 tRC=40
n_cmd=22880112 n_nop=22865558 n_act=1680 n_pre=1664 n_req=3415 n_rd=10362 n_write=848 bw_util=0.0009799
n_activity=62337 dram_eff=0.3597
bk0: 680a 22874837i bk1: 544a 22875894i bk2: 764a 22874227i bk3: 664a 22874832i bk4: 608a 22874754i bk5: 600a 22875326i bk6: 692a 22874249i bk7: 604a 22874903i bk8: 664a 22874636i bk9: 648a 22874623i bk10: 620a 22874556i bk11: 644a 22874527i bk12: 736a 22874138i bk13: 588a 22875161i bk14: 646a 22874601i bk15: 660a 22874444i 
dram_util_bins: 0 0 0 0 0 0 0 0 0 0
dram_eff_bins: 0 0 0 0 0 0 0 0 0 0
mrqq: max=34 avg=0.00262625
Memory Partition 4: 
Cache L2_bank_008:
MSHR contents

Cache L2_bank_009:
MSHR contents

In Dram Latency Queue (total = 0): 
DRAM[4]: 16 bks, busW=4 BL=8 CL=12, tRRD=2 tCCD=6, tRCD=12 tRAS=28 tRP=12 tRC=40
n_cmd=22880112 n_nop=22865150 n_act=1731 n_pre=1715 n_req=3542 n_rd=10596 n_write=920 bw_util=0.001007
n_activity=63109 dram_eff=0.365
bk0: 728a 22874638i bk1: 676a 22874626i bk2: 572a 22875358i bk3: 712a 22874227i bk4: 684a 22874168i bk5: 648a 22874353i bk6: 736a 22873660i bk7: 708a 22873973i bk8: 640a 22873816i bk9: 644a 22874349i bk10: 704a 22874534i bk11: 540a 22875199i bk12: 636a 22874862i bk13: 700a 22874489i bk14: 696a 22874404i bk15: 572a 22875639i 
dram_util_bins: 0 0 0 0 0 0 0 0 0 0
dram_eff_bins: 0 0 0 0 0 0 0 0 0 0
mrqq: max=37 avg=0.00265934
Memory Partition 5: 
Cache L2_bank_010:
MSHR contents

Cache L2_bank_011:
MSHR contents

In Dram Latency Queue (total = 0): 
DRAM[5]: 16 bks, busW=4 BL=8 CL=12, tRRD=2 tCCD=6, tRCD=12 tRAS=28 tRP=12 tRC=40
n_cmd=22880112 n_nop=22865835 n_act=1635 n_pre=1619 n_req=3343 n_rd=10224 n_write=799 bw_util=0.0009635
n_activity=60393 dram_eff=0.365
bk0: 572a 22875613i bk1: 656a 22874965i bk2: 684a 22874676i bk3: 620a 22874672i bk4: 676a 22874974i bk5: 636a 22874612i bk6: 644a 22874674i bk7: 656a 22874553i bk8: 680a 22873990i bk9: 612a 22874767i bk10: 588a 22875315i bk11: 716a 22874273i bk12: 592a 22875387i bk13: 592a 22874714i bk14: 616a 22875083i bk15: 684a 22874309i 
dram_util_bins: 0 0 0 0 0 0 0 0 0 0
dram_eff_bins: 0 0 0 0 0 0 0 0 0 0
mrqq: max=35 avg=0.00272188
Memory Partition 6: 
Cache L2_bank_012:
MSHR contents

Cache L2_bank_013:
MSHR contents
MSHR: tag=0xc07f6180, atomic=0 1 entries : 0x7f0e93c9bf60 :  mf: uid=627777, sid21:w16, part=6, addr=0xc07f61c0, load , size=32, unknown  status = IN_PARTITION_DRAM (12544130), 

In Dram Latency Queue (total = 0): 
DRAM[6]: 16 bks, busW=4 BL=8 CL=12, tRRD=2 tCCD=6, tRCD=12 tRAS=28 tRP=12 tRC=40
n_cmd=22880112 n_nop=22865635 n_act=1674 n_pre=1658 n_req=3410 n_rd=10282 n_write=863 bw_util=0.0009742
n_activity=60836 dram_eff=0.3664
bk0: 692a 22874813i bk1: 572a 22875206i bk2: 704a 22874374i bk3: 628a 22875011i bk4: 612a 22874795i bk5: 632a 22875222i bk6: 688a 22874350i bk7: 588a 22875119i bk8: 688a 22874022i bk9: 696a 22874061i bk10: 592a 22874900i bk11: 600a 22874968i bk12: 648a 22875050i bk13: 712a 22873825i bk14: 592a 22874297i bk15: 638a 22874725i 
dram_util_bins: 0 0 0 0 0 0 0 0 0 0
dram_eff_bins: 0 0 0 0 0 0 0 0 0 0
mrqq: max=36 avg=0.00261183
Memory Partition 7: 
Cache L2_bank_014:
MSHR contents

Cache L2_bank_015:
MSHR contents

In Dram Latency Queue (total = 0): 
DRAM[7]: 16 bks, busW=4 BL=8 CL=12, tRRD=2 tCCD=6, tRCD=12 tRAS=28 tRP=12 tRC=40
n_cmd=22880112 n_nop=22865539 n_act=1690 n_pre=1674 n_req=3412 n_rd=10368 n_write=841 bw_util=0.0009798
n_activity=61509 dram_eff=0.3645
bk0: 716a 22874471i bk1: 660a 22874670i bk2: 604a 22874957i bk3: 700a 22874377i bk4: 676a 22874555i bk5: 584a 22874991i bk6: 648a 22874539i bk7: 636a 22874846i bk8: 668a 22874414i bk9: 608a 22874825i bk10: 652a 22875255i bk11: 696a 22873851i bk12: 544a 22875958i bk13: 724a 22874306i bk14: 652a 22874812i bk15: 600a 22875185i 
dram_util_bins: 0 0 0 0 0 0 0 0 0 0
dram_eff_bins: 0 0 0 0 0 0 0 0 0 0
mrqq: max=36 avg=0.00250991
Memory Partition 8: 
Cache L2_bank_016:
MSHR contents

Cache L2_bank_017:
MSHR contents

In Dram Latency Queue (total = 0): 
DRAM[8]: 16 bks, busW=4 BL=8 CL=12, tRRD=2 tCCD=6, tRCD=12 tRAS=28 tRP=12 tRC=40
n_cmd=22880112 n_nop=22865390 n_act=1697 n_pre=1681 n_req=3472 n_rd=10476 n_write=868 bw_util=0.0009916
n_activity=62727 dram_eff=0.3617
bk0: 600a 22875076i bk1: 628a 22875526i bk2: 704a 22874495i bk3: 560a 22875517i bk4: 632a 22875017i bk5: 676a 22874581i bk6: 712a 22874167i bk7: 588a 22874963i bk8: 660a 22874288i bk9: 628a 22874264i bk10: 656a 22874375i bk11: 680a 22874291i bk12: 724a 22874067i bk13: 652a 22874399i bk14: 676a 22874561i bk15: 700a 22874107i 
dram_util_bins: 0 0 0 0 0 0 0 0 0 0
dram_eff_bins: 0 0 0 0 0 0 0 0 0 0
mrqq: max=35 avg=0.00272604
Memory Partition 9: 
Cache L2_bank_018:
MSHR contents

Cache L2_bank_019:
MSHR contents

In Dram Latency Queue (total = 0): 
DRAM[9]: 16 bks, busW=4 BL=8 CL=12, tRRD=2 tCCD=6, tRCD=12 tRAS=28 tRP=12 tRC=40
n_cmd=22880112 n_nop=22865248 n_act=1711 n_pre=1695 n_req=3481 n_rd=10608 n_write=850 bw_util=0.001002
n_activity=63683 dram_eff=0.3598
bk0: 772a 22874185i bk1: 644a 22874492i bk2: 672a 22874526i bk3: 684a 22874356i bk4: 676a 22874163i bk5: 616a 22875131i bk6: 680a 22874551i bk7: 600a 22875008i bk8: 688a 22874382i bk9: 696a 22874012i bk10: 636a 22874805i bk11: 572a 22875455i bk12: 664a 22874783i bk13: 708a 22874342i bk14: 648a 22874661i bk15: 652a 22874964i 
dram_util_bins: 0 0 0 0 0 0 0 0 0 0
dram_eff_bins: 0 0 0 0 0 0 0 0 0 0
mrqq: max=36 avg=0.00263609
Memory Partition 10: 
Cache L2_bank_020:
MSHR contents

Cache L2_bank_021:
MSHR contents

In Dram Latency Queue (total = 0): 
DRAM[10]: 16 bks, busW=4 BL=8 CL=12, tRRD=2 tCCD=6, tRCD=12 tRAS=28 tRP=12 tRC=40
n_cmd=22880112 n_nop=22865782 n_act=1649 n_pre=1633 n_req=3383 n_rd=10200 n_write=848 bw_util=0.0009657
n_activity=61266 dram_eff=0.3607
bk0: 668a 22874850i bk1: 640a 22875469i bk2: 628a 22874774i bk3: 628a 22874742i bk4: 652a 22874595i bk5: 616a 22874828i bk6: 628a 22874273i bk7: 676a 22874225i bk8: 608a 22874511i bk9: 632a 22874588i bk10: 604a 22875584i bk11: 688a 22874061i bk12: 624a 22874570i bk13: 676a 22874449i bk14: 664a 22874465i bk15: 568a 22875365i 
dram_util_bins: 0 0 0 0 0 0 0 0 0 0
dram_eff_bins: 0 0 0 0 0 0 0 0 0 0
mrqq: max=35 avg=0.00267879

========= L2 cache stats =========
L2_cache_bank[0]: Access = 1489, Miss = 1312, Miss_rate = 0.881, Pending_hits = 37, Reservation_fails = 3
L2_cache_bank[1]: Access = 1426, Miss = 1300, Miss_rate = 0.912, Pending_hits = 2, Reservation_fails = 2
L2_cache_bank[2]: Access = 1398, Miss = 1278, Miss_rate = 0.914, Pending_hits = 4, Reservation_fails = 5
L2_cache_bank[3]: Access = 1387, Miss = 1270, Miss_rate = 0.916, Pending_hits = 7, Reservation_fails = 0
L2_cache_bank[4]: Access = 1447, Miss = 1318, Miss_rate = 0.911, Pending_hits = 7, Reservation_fails = 1
L2_cache_bank[5]: Access = 1466, Miss = 1320, Miss_rate = 0.900, Pending_hits = 2, Reservation_fails = 1
L2_cache_bank[6]: Access = 1483, Miss = 1353, Miss_rate = 0.912, Pending_hits = 1, Reservation_fails = 1
L2_cache_bank[7]: Access = 1351, Miss = 1238, Miss_rate = 0.916, Pending_hits = 3, Reservation_fails = 0
L2_cache_bank[8]: Access = 1509, Miss = 1349, Miss_rate = 0.894, Pending_hits = 32, Reservation_fails = 3
L2_cache_bank[9]: Access = 1467, Miss = 1300, Miss_rate = 0.886, Pending_hits = 33, Reservation_fails = 4
L2_cache_bank[10]: Access = 1437, Miss = 1263, Miss_rate = 0.879, Pending_hits = 32, Reservation_fails = 3
L2_cache_bank[11]: Access = 1422, Miss = 1293, Miss_rate = 0.909, Pending_hits = 6, Reservation_fails = 0
L2_cache_bank[12]: Access = 1447, Miss = 1304, Miss_rate = 0.901, Pending_hits = 6, Reservation_fails = 2
L2_cache_bank[13]: Access = 1380, Miss = 1267, Miss_rate = 0.918, Pending_hits = 6, Reservation_fails = 1
L2_cache_bank[14]: Access = 1411, Miss = 1290, Miss_rate = 0.914, Pending_hits = 8, Reservation_fails = 2
L2_cache_bank[15]: Access = 1449, Miss = 1302, Miss_rate = 0.899, Pending_hits = 5, Reservation_fails = 1
L2_cache_bank[16]: Access = 1462, Miss = 1341, Miss_rate = 0.917, Pending_hits = 2, Reservation_fails = 2
L2_cache_bank[17]: Access = 1411, Miss = 1278, Miss_rate = 0.906, Pending_hits = 2, Reservation_fails = 5
L2_cache_bank[18]: Access = 1500, Miss = 1359, Miss_rate = 0.906, Pending_hits = 5, Reservation_fails = 1
L2_cache_bank[19]: Access = 1414, Miss = 1293, Miss_rate = 0.914, Pending_hits = 3, Reservation_fails = 0
L2_cache_bank[20]: Access = 1404, Miss = 1269, Miss_rate = 0.904, Pending_hits = 2, Reservation_fails = 2
L2_cache_bank[21]: Access = 1410, Miss = 1281, Miss_rate = 0.909, Pending_hits = 8, Reservation_fails = 0
L2_total_cache_accesses = 31570
L2_total_cache_misses = 28578
L2_total_cache_miss_rate = 0.9052
L2_total_cache_pending_hits = 213
L2_total_cache_reservation_fails = 39
L2_total_cache_breakdown:
	L2_cache_stats_breakdown[GLOBAL_ACC_R][HIT] = 1392
	L2_cache_stats_breakdown[GLOBAL_ACC_R][HIT_RESERVED] = 50
	L2_cache_stats_breakdown[GLOBAL_ACC_R][MISS] = 19530
	L2_cache_stats_breakdown[GLOBAL_ACC_R][RESERVATION_FAIL] = 0
	L2_cache_stats_breakdown[LOCAL_ACC_R][HIT] = 0
	L2_cache_stats_breakdown[LOCAL_ACC_R][HIT_RESERVED] = 0
	L2_cache_stats_breakdown[LOCAL_ACC_R][MISS] = 0
	L2_cache_stats_breakdown[LOCAL_ACC_R][RESERVATION_FAIL] = 0
	L2_cache_stats_breakdown[CONST_ACC_R][HIT] = 0
	L2_cache_stats_breakdown[CONST_ACC_R][HIT_RESERVED] = 27
	L2_cache_stats_breakdown[CONST_ACC_R][MISS] = 1
	L2_cache_stats_breakdown[CONST_ACC_R][RESERVATION_FAIL] = 0
	L2_cache_stats_breakdown[TEXTURE_ACC_R][HIT] = 0
	L2_cache_stats_breakdown[TEXTURE_ACC_R][HIT_RESERVED] = 0
	L2_cache_stats_breakdown[TEXTURE_ACC_R][MISS] = 0
	L2_cache_stats_breakdown[TEXTURE_ACC_R][RESERVATION_FAIL] = 0
	L2_cache_stats_breakdown[GLOBAL_ACC_W][HIT] = 1387
	L2_cache_stats_breakdown[GLOBAL_ACC_W][HIT_RESERVED] = 55
	L2_cache_stats_breakdown[GLOBAL_ACC_W][MISS] = 9044
	L2_cache_stats_breakdown[GLOBAL_ACC_W][RESERVATION_FAIL] = 39
	L2_cache_stats_breakdown[LOCAL_ACC_W][HIT] = 0
	L2_cache_stats_breakdown[LOCAL_ACC_W][HIT_RESERVED] = 0
	L2_cache_stats_breakdown[LOCAL_ACC_W][MISS] = 0
	L2_cache_stats_breakdown[LOCAL_ACC_W][RESERVATION_FAIL] = 0
	L2_cache_stats_breakdown[L1_WRBK_ACC][HIT] = 0
	L2_cache_stats_breakdown[L1_WRBK_ACC][HIT_RESERVED] = 0
	L2_cache_stats_breakdown[L1_WRBK_ACC][MISS] = 0
	L2_cache_stats_breakdown[L1_WRBK_ACC][RESERVATION_FAIL] = 0
	L2_cache_stats_breakdown[L2_WRBK_ACC][HIT] = 0
[...]
F: 10525190----T: 10528276 	 St: c05f0000 Sz: 12288 	 Sm: 0 	 T: memcpy_h2d(2.083727)
F: 10528276----T: 10532495 	 St: c05f3000 Sz: 24576 	 Sm: 0 	 T: memcpy_h2d(2.848751)
F: 10532495----T: 10537136 	 St: c05f9000 Sz: 28672 	 Sm: 0 	 T: memcpy_h2d(3.133693)
F: 10537136----T: 10540948 	 St: c05e0000 Sz: 20480 	 Sm: 0 	 T: memcpy_h2d(2.573936)
F: 10540948----T: 10547360 	 St: c05e5000 Sz: 45056 	 Sm: 0 	 T: memcpy_h2d(4.329507)
F: 10547360----T: 10551579 	 St: c0450000 Sz: 24576 	 Sm: 0 	 T: memcpy_h2d(2.848751)
F: 10551579----T: 10557540 	 St: c0456000 Sz: 40960 	 Sm: 0 	 T: memcpy_h2d(4.024983)
F: 10557540----T: 10560970 	 St: c05c0000 Sz: 16384 	 Sm: 0 	 T: memcpy_h2d(2.316003)
F: 10560970----T: 10565189 	 St: c05c4000 Sz: 24576 	 Sm: 0 	 T: memcpy_h2d(2.848751)
F: 10565189----T: 10572511 	 St: c05ca000 Sz: 53248 	 Sm: 0 	 T: memcpy_h2d(4.943957)
F: 10572511----T: 10578026 	 St: c05d7000 Sz: 36864 	 Sm: 0 	 T: memcpy_h2d(3.723835)
F: 10578026----T: 10580631 	 St: c04c0000 Sz: 4096 	 Sm: 0 	 T: memcpy_h2d(1.758947)
F: 10580631----T: 10583717 	 St: c04c1000 Sz: 12288 	 Sm: 0 	 T: memcpy_h2d(2.083727)
F: 10583717----T: 10586803 	 St: c04c4000 Sz: 12288 	 Sm: 0 	 T: memcpy_h2d(2.083727)
F: 10586803----T: 10592318 	 St: c04c7000 Sz: 36864 	 Sm: 0 	 T: memcpy_h2d(3.723835)
F: 10592318----T: 10598730 	 St: c04b0000 Sz: 45056 	 Sm: 0 	 T: memcpy_h2d(4.329507)
F: 10598730----T: 10602542 	 St: c04bb000 Sz: 20480 	 Sm: 0 	 T: memcpy_h2d(2.573936)
F: 10602542----T: 10605972 	 St: c0470000 Sz: 16384 	 Sm: 0 	 T: memcpy_h2d(2.316003)
F: 10605972----T: 10608772 	 St: c0474000 Sz: 8192 	 Sm: 0 	 T: memcpy_h2d(1.890614)
F: 10608772----T: 10614733 	 St: c0476000 Sz: 40960 	 Sm: 0 	 T: memcpy_h2d(4.024983)
F: 10614733----T: 10617819 	 St: c0400000 Sz: 12288 	 Sm: 0 	 T: memcpy_h2d(2.083727)
F: 10617819----T: 10622038 	 St: c0403000 Sz: 24576 	 Sm: 0 	 T: memcpy_h2d(2.848751)
F: 10622038----T: 10626679 	 St: c0409000 Sz: 28672 	 Sm: 0 	 T: memcpy_h2d(3.133693)
F: 10626679----T: 10648003 	 St: c0410000 Sz: 176128 	 Sm: 0 	 T: memcpy_h2d(14.398379)
F: 10648003----T: 10655783 	 St: c043b000 Sz: 57344 	 Sm: 0 	 T: memcpy_h2d(5.253207)
F: 10655783----T: 10660424 	 St: c0449000 Sz: 28672 	 Sm: 0 	 T: memcpy_h2d(3.133693)
F: 10660424----T: 10669126 	 St: c0460000 Sz: 65536 	 Sm: 0 	 T: memcpy_h2d(5.875760)
F: 10669126----T: 10685289 	 St: c0490000 Sz: 131072 	 Sm: 0 	 T: memcpy_h2d(10.913572)
F: 10685289----T: 10761658 	 St: c04d0000 Sz: 655360 	 Sm: 0 	 T: memcpy_h2d(51.565834)
F: 10761658----T: 10792851 	 St: c0580000 Sz: 262144 	 Sm: 0 	 T: memcpy_h2d(21.062120)
F: 10793235----T: 10796321 	 St: c0380000 Sz: 12288 	 Sm: 0 	 T: memcpy_h2d(2.083727)
F: 10796321----T: 10856216 	 St: c0383000 Sz: 512000 	 Sm: 0 	 T: memcpy_h2d(40.442268)
F: 10796756----T: 11038836 	 St: c0600000 Sz: 2097152 	 Sm: 0 	 T: write_back(163.457123)
F: 10856216----T: 10864456 	 St: c0ae0000 Sz: 61440 	 Sm: 0 	 T: memcpy_h2d(5.563808)
F: 10864456----T: 10867061 	 St: c0aef000 Sz: 4096 	 Sm: 0 	 T: memcpy_h2d(1.758947)
F: 10867061----T: 10872576 	 St: c0b30000 Sz: 36864 	 Sm: 0 	 T: memcpy_h2d(3.723835)
F: 10872576----T: 10877217 	 St: c0b39000 Sz: 28672 	 Sm: 0 	 T: memcpy_h2d(3.133693)
F: 10877217----T: 10884082 	 St: c0ad0000 Sz: 49152 	 Sm: 0 	 T: memcpy_h2d(4.635382)
F: 10884082----T: 10887512 	 St: c0adc000 Sz: 16384 	 Sm: 0 	 T: memcpy_h2d(2.316003)
F: 10887512----T: 10893473 	 St: c0b40000 Sz: 40960 	 Sm: 0 	 T: memcpy_h2d(4.024983)
F: 10893473----T: 10897692 	 St: c0b4a000 Sz: 24576 	 Sm: 0 	 T: memcpy_h2d(2.848751)
F: 10897692----T: 10901504 	 St: c0b80000 Sz: 20480 	 Sm: 0 	 T: memcpy_h2d(2.573936)
F: 10901504----T: 10907916 	 St: c0b85000 Sz: 45056 	 Sm: 0 	 T: memcpy_h2d(4.329507)
F: 10907916----T: 10911002 	 St: c0a80000 Sz: 12288 	 Sm: 0 	 T: memcpy_h2d(2.083727)
F: 10911002----T: 10922490 	 St: c0a83000 Sz: 90112 	 Sm: 0 	 T: memcpy_h2d(7.756921)
F: 10922490----T: 10927131 	 St: c0a99000 Sz: 28672 	 Sm: 0 	 T: memcpy_h2d(3.133693)
F: 10927131----T: 10988438 	 St: c0a00000 Sz: 524288 	 Sm: 0 	 T: memcpy_h2d(41.395679)
F: 10988438----T: 11012110 	 St: c0aa0000 Sz: 196608 	 Sm: 0 	 T: memcpy_h2d(15.983795)
F: 11012110----T: 11043303 	 St: c0af0000 Sz: 262144 	 Sm: 0 	 T: memcpy_h2d(21.062120)
F: 11038837----T: 11280917 	 St: c0800000 Sz: 2097152 	 Sm: 0 	 T: write_back(163.457123)
F: 11043303----T: 11046389 	 St: c0b50000 Sz: 12288 	 Sm: 0 	 T: memcpy_h2d(2.083727)
F: 11046389----T: 11055553 	 St: c0b53000 Sz: 69632 	 Sm: 0 	 T: memcpy_h2d(6.187711)
F: 11055553----T: 11069843 	 St: c0b64000 Sz: 114688 	 Sm: 0 	 T: memcpy_h2d(9.648886)
F: 11069843----T: 11123619 	 St: c0b90000 Sz: 458752 	 Sm: 0 	 T: memcpy_h2d(36.310600)
F: 11123619----T: 11126419 	 St: c06e0000 Sz: 8192 	 Sm: 0 	 T: memcpy_h2d(1.890614)
F: 11126419----T: 11130231 	 St: c06e2000 Sz: 20480 	 Sm: 0 	 T: memcpy_h2d(2.573936)
F: 11130231----T: 11135746 	 St: c06e7000 Sz: 36864 	 Sm: 0 	 T: memcpy_h2d(3.723835)
F: 11135746----T: 11139176 	 St: c0730000 Sz: 16384 	 Sm: 0 	 T: memcpy_h2d(2.316003)
F: 11139176----T: 11146041 	 St: c0734000 Sz: 49152 	 Sm: 0 	 T: memcpy_h2d(4.635382)
F: 11146041----T: 11149471 	 St: c06d0000 Sz: 16384 	 Sm: 0 	 T: memcpy_h2d(2.316003)
F: 11149471----T: 11154112 	 St: c06d4000 Sz: 28672 	 Sm: 0 	 T: memcpy_h2d(3.133693)
F: 11154112----T: 11157924 	 St: c06db000 Sz: 20480 	 Sm: 0 	 T: memcpy_h2d(2.573936)
F: 11157924----T: 11162998 	 St: c0740000 Sz: 32768 	 Sm: 0 	 T: memcpy_h2d(3.426064)
F: 11162998----T: 11168072 	 St: c0748000 Sz: 32768 	 Sm: 0 	 T: memcpy_h2d(3.426064)
F: 11168072----T: 11171884 	 St: c0780000 Sz: 20480 	 Sm: 0 	 T: memcpy_h2d(2.573936)
F: 11171884----T: 11178296 	 St: c0785000 Sz: 45056 	 Sm: 0 	 T: memcpy_h2d(4.329507)
F: 11178296----T: 11181382 	 St: c0680000 Sz: 12288 	 Sm: 0 	 T: memcpy_h2d(2.083727)
F: 11181382----T: 11188704 	 St: c0683000 Sz: 53248 	 Sm: 0 	 T: memcpy_h2d(4.943957)
F: 11188704----T: 11194219 	 St: c0690000 Sz: 36864 	 Sm: 0 	 T: memcpy_h2d(3.723835)
F: 11194219----T: 11198860 	 St: c0699000 Sz: 28672 	 Sm: 0 	 T: memcpy_h2d(3.133693)
F: 11198860----T: 11205725 	 St: c0610000 Sz: 49152 	 Sm: 0 	 T: memcpy_h2d(4.635382)
F: 11205725----T: 11209155 	 St: c061c000 Sz: 16384 	 Sm: 0 	 T: memcpy_h2d(2.316003)
F: 11209155----T: 11215116 	 St: c0640000 Sz: 40960 	 Sm: 0 	 T: memcpy_h2d(4.024983)
F: 11215116----T: 11219757 	 St: c064a000 Sz: 28672 	 Sm: 0 	 T: memcpy_h2d(3.133693)
F: 11219757----T: 11227997 	 St: c0651000 Sz: 61440 	 Sm: 0 	 T: memcpy_h2d(5.563808)
F: 11227997----T: 11236237 	 St: c0620000 Sz: 61440 	 Sm: 0 	 T: memcpy_h2d(5.563808)
F: 11236237----T: 11238842 	 St: c062f000 Sz: 4096 	 Sm: 0 	 T: memcpy_h2d(1.758947)
F: 11238842----T: 11247544 	 St: c0600000 Sz: 65536 	 Sm: 0 	 T: memcpy_h2d(5.875760)
F: 11247544----T: 11256246 	 St: c0630000 Sz: 65536 	 Sm: 0 	 T: memcpy_h2d(5.875760)
F: 11256246----T: 11261320 	 St: c0660000 Sz: 32768 	 Sm: 0 	 T: memcpy_h2d(3.426064)
F: 11261320----T: 11273741 	 St: c0668000 Sz: 98304 	 Sm: 0 	 T: memcpy_h2d(8.386901)
F: 11273741----T: 11297413 	 St: c06a0000 Sz: 196608 	 Sm: 0 	 T: memcpy_h2d(15.983795)
F: 11297413----T: 11328606 	 St: c06f0000 Sz: 262144 	 Sm: 0 	 T: memcpy_h2d(21.062120)
F: 11328606----T: 11352278 	 St: c0750000 Sz: 196608 	 Sm: 0 	 T: memcpy_h2d(15.983795)
F: 11352278----T: 11406054 	 St: c0790000 Sz: 458752 	 Sm: 0 	 T: memcpy_h2d(36.310600)
F: 11406858----T: 11415560 	 St: c0930000 Sz: 65536 	 Sm: 0 	 T: memcpy_h2d(5.875760)
F: 11406858----T: 11648938 	 St: c0400000 Sz: 2097152 	 Sm: 0 	 T: write_back(163.457123)
F: 11415560----T: 11423800 	 St: c09d0000 Sz: 61440 	 Sm: 0 	 T: memcpy_h2d(5.563808)
F: 11423800----T: 11426405 	 St: c09df000 Sz: 4096 	 Sm: 0 	 T: memcpy_h2d(1.758947)
F: 11426405----T: 11431920 	 St: c0830000 Sz: 36864 	 Sm: 0 	 T: memcpy_h2d(3.723835)
F: 11431920----T: 11436561 	 St: c0839000 Sz: 28672 	 Sm: 0 	 T: memcpy_h2d(3.133693)
F: 11436561----T: 11443883 	 St: c0820000 Sz: 53248 	 Sm: 0 	 T: memcpy_h2d(4.943957)
F: 11443883----T: 11446969 	 St: c082d000 Sz: 12288 	 Sm: 0 	 T: memcpy_h2d(2.083727)
F: 11446969----T: 11454291 	 St: c09b0000 Sz: 53248 	 Sm: 0 	 T: memcpy_h2d(4.943957)
F: 11454291----T: 11457377 	 St: c09bd000 Sz: 12288 	 Sm: 0 	 T: memcpy_h2d(2.083727)
F: 11457377----T: 11460463 	 St: c09e0000 Sz: 12288 	 Sm: 0 	 T: memcpy_h2d(2.083727)
F: 11460463----T: 11467785 	 St: c09e3000 Sz: 53248 	 Sm: 0 	 T: memcpy_h2d(4.943957)
F: 11467785----T: 11473300 	 St: c0940000 Sz: 36864 	 Sm: 0 	 T: memcpy_h2d(3.723835)
F: 11473300----T: 11477941 	 St: c0949000 Sz: 28672 	 Sm: 0 	 T: memcpy_h2d(3.133693)
F: 11477941----T: 11486643 	 St: c0840000 Sz: 65536 	 Sm: 0 	 T: memcpy_h2d(5.875760)
F: 11486643----T: 11495345 	 St: c0920000 Sz: 65536 	 Sm: 0 	 T: memcpy_h2d(5.875760)
F: 11495345----T: 11497950 	 St: c08e0000 Sz: 4096 	 Sm: 0 	 T: memcpy_h2d(1.758947)
F: 11497950----T: 11506190 	 St: c08e1000 Sz: 61440 	 Sm: 0 	 T: memcpy_h2d(5.563808)
F: 11506190----T: 11513055 	 St: c0870000 Sz: 49152 	 Sm: 0 	 T: memcpy_h2d(4.635382)
F: 11513055----T: 11516485 	 St: c087c000 Sz: 16384 	 Sm: 0 	 T: memcpy_h2d(2.316003)
F: 11516485----T: 11524725 	 St: c08d0000 Sz: 61440 	 Sm: 0 	 T: memcpy_h2d(5.563808)
F: 11524725----T: 11527330 	 St: c08df000 Sz: 4096 	 Sm: 0 	 T: memcpy_h2d(1.758947)
F: 11527330----T: 11543493 	 St: c0800000 Sz: 131072 	 Sm: 0 	 T: memcpy_h2d(10.913572)
F: 11543493----T: 11547712 	 St: c0850000 Sz: 24576 	 Sm: 0 	 T: memcpy_h2d(2.848751)
F: 11547712----T: 11561067 	 St: c0856000 Sz: 106496 	 Sm: 0 	 T: memcpy_h2d(9.017555)
F: 11561067----T: 11599786 	 St: c0880000 Sz: 327680 	 Sm: 0 	 T: memcpy_h2d(26.143822)
F: 11599786----T: 11623458 	 St: c08f0000 Sz: 196608 	 Sm: 0 	 T: memcpy_h2d(15.983795)
F: 11623458----T: 11669705 	 St: c0950000 Sz: 393216 	 Sm: 0 	 T: memcpy_h2d(31.226873)
F: 11648939----T: 11891019 	 St: c0a00000 Sz: 2097152 	 Sm: 0 	 T: write_back(163.457123)
F: 11669705----T: 11678407 	 St: c09c0000 Sz: 65536 	 Sm: 0 	 T: memcpy_h2d(5.875760)
F: 11678407----T: 11687109 	 St: c09f0000 Sz: 65536 	 Sm: 0 	 T: memcpy_h2d(5.875760)
F: 11687109----T: 11690921 	 St: c0530000 Sz: 20480 	 Sm: 0 	 T: memcpy_h2d(2.573936)
F: 11690921----T: 11695562 	 St: c0535000 Sz: 28672 	 Sm: 0 	 T: memcpy_h2d(3.133693)
F: 11695562----T: 11698992 	 St: c053c000 Sz: 16384 	 Sm: 0 	 T: memcpy_h2d(2.316003)
F: 11698992----T: 11703211 	 St: c05d0000 Sz: 24576 	 Sm: 0 	 T: memcpy_h2d(2.848751)
F: 11703211----T: 11709172 	 St: c05d6000 Sz: 40960 	 Sm: 0 	 T: memcpy_h2d(4.024983)
F: 11709172----T: 11714687 	 St: c0430000 Sz: 36864 	 Sm: 0 	 T: memcpy_h2d(3.723835)
F: 11714687----T: 11719328 	 St: c0439000 Sz: 28672 	 Sm: 0 	 T: memcpy_h2d(3.133693)
F: 11719328----T: 11726650 	 St: c0420000 Sz: 53248 	 Sm: 0 	 T: memcpy_h2d(4.943957)
F: 11726650----T: 11729736 	 St: c042d000 Sz: 12288 	 Sm: 0 	 T: memcpy_h2d(2.083727)
F: 11729736----T: 11734377 	 St: c05b0000 Sz: 28672 	 Sm: 0 	 T: memcpy_h2d(3.133693)
F: 11734377----T: 11737807 	 St: c05b7000 Sz: 16384 	 Sm: 0 	 T: memcpy_h2d(2.316003)
F: 11737807----T: 11741619 	 St: c05bb000 Sz: 20480 	 Sm: 0 	 T: memcpy_h2d(2.573936)
F: 11741619----T: 11744705 	 St: c05e0000 Sz: 12288 	 Sm: 0 	 T: memcpy_h2d(2.083727)
F: 11744705----T: 11752027 	 St: c05e3000 Sz: 53248 	 Sm: 0 	 T: memcpy_h2d(4.943957)
F: 11752027----T: 11756246 	 St: c0540000 Sz: 24576 	 Sm: 0 	 T: memcpy_h2d(2.848751)
F: 11756246----T: 11759046 	 St: c0546000 Sz: 8192 	 Sm: 0 	 T: memcpy_h2d(1.890614)
F: 11759046----T: 11761651 	 St: c0548000 Sz: 4096 	 Sm: 0 	 T: memcpy_h2d(1.758947)
F: 11761651----T: 11766292 	 St: c0549000 Sz: 28672 	 Sm: 0 	 T: memcpy_h2d(3.133693)
F: 11766292----T: 11769722 	 St: c0440000 Sz: 16384 	 Sm: 0 	 T: memcpy_h2d(2.316003)
F: 11769722----T: 11776587 	 St: c0444000 Sz: 49152 	 Sm: 0 	 T: memcpy_h2d(4.635382)
F: 11776587----T: 11782999 	 St: c0520000 Sz: 45056 	 Sm: 0 	 T: memcpy_h2d(4.329507)
F: 11782999----T: 11786811 	 St: c052b000 Sz: 20480 	 Sm: 0 	 T: memcpy_h2d(2.573936)
F: 11786811----T: 11789416 	 St: c04e0000 Sz: 4096 	 Sm: 0 	 T: memcpy_h2d(1.758947)
F: 11789416----T: 11797656 	 St: c04e1000 Sz: 61440 	 Sm: 0 	 T: memcpy_h2d(5.563808)
F: 11797656----T: 11801468 	 St: c0470000 Sz: 20480 	 Sm: 0 	 T: memcpy_h2d(2.573936)
F: 11801468----T: 11804268 	 St: c0475000 Sz: 8192 	 Sm: 0 	 T: memcpy_h2d(1.890614)
F: 11804268----T: 11807698 	 St: c0477000 Sz: 16384 	 Sm: 0 	 T: memcpy_h2d(2.316003)
F: 11807698----T: 11811510 	 St: c047b000 Sz: 20480 	 Sm: 0 	 T: memcpy_h2d(2.573936)
F: 11811510----T: 11816584 	 St: c04d0000 Sz: 32768 	 Sm: 0 	 T: memcpy_h2d(3.426064)
F: 11816584----T: 11819384 	 St: c04d8000 Sz: 8192 	 Sm: 0 	 T: memcpy_h2d(1.890614)
F: 11819384----T: 11823603 	 St: c04da000 Sz: 24576 	 Sm: 0 	 T: memcpy_h2d(2.848751)
F: 11823603----T: 11829564 	 St: c0400000 Sz: 40960 	 Sm: 0 	 T: memcpy_h2d(4.024983)
F: 11829564----T: 11833376 	 St: c040a000 Sz: 20480 	 Sm: 0 	 T: memcpy_h2d(2.573936)
F: 11833376----T: 11837188 	 St: c040f000 Sz: 20480 	 Sm: 0 	 T: memcpy_h2d(2.573936)
F: 11837188----T: 11844053 	 St: c0414000 Sz: 49152 	 Sm: 0 	 T: memcpy_h2d(4.635382)
F: 11844053----T: 11860216 	 St: c0450000 Sz: 131072 	 Sm: 0 	 T: memcpy_h2d(10.913572)
F: 11860216----T: 11898935 	 St: c0480000 Sz: 327680 	 Sm: 0 	 T: memcpy_h2d(26.143822)
F: 11898935----T: 11922607 	 St: c04f0000 Sz: 196608 	 Sm: 0 	 T: memcpy_h2d(15.983795)
F: 11922607----T: 11968854 	 St: c0550000 Sz: 393216 	 Sm: 0 	 T: memcpy_h2d(31.226873)
F: 11968854----T: 11977556 	 St: c05c0000 Sz: 65536 	 Sm: 0 	 T: memcpy_h2d(5.875760)
F: 11977556----T: 11986258 	 St: c05f0000 Sz: 65536 	 Sm: 0 	 T: memcpy_h2d(5.875760)
F: 11986955----T: 11991174 	 St: c0ae0000 Sz: 24576 	 Sm: 0 	 T: memcpy_h2d(2.848751)
F: 11986955----T: 12229035 	 St: c0600000 Sz: 2097152 	 Sm: 0 	 T: write_back(163.457123)
F: 11991174----T: 12003128 	 St: c0ae6000 Sz: 94208 	 Sm: 0 	 T: memcpy_h2d(8.071573)
F: 12003128----T: 12008202 	 St: c0afd000 Sz: 32768 	 Sm: 0 	 T: memcpy_h2d(3.426064)
F: 12008202----T: 12014614 	 St: c0b05000 Sz: 45056 	 Sm: 0 	 T: memcpy_h2d(4.329507)
F: 12014614----T: 12022394 	 St: c0be0000 Sz: 57344 	 Sm: 0 	 T: memcpy_h2d(5.253207)
F: 12022394----T: 12025194 	 St: c0bee000 Sz: 8192 	 Sm: 0 	 T: memcpy_h2d(1.890614)
F: 12025194----T: 12032059 	 St: c0a00000 Sz: 49152 	 Sm: 0 	 T: memcpy_h2d(4.635382)
F: 12032059----T: 12035489 	 St: c0a0c000 Sz: 16384 	 Sm: 0 	 T: memcpy_h2d(2.316003)
F: 12035489----T: 12044191 	 St: c0a10000 Sz: 65536 	 Sm: 0 	 T: memcpy_h2d(5.875760)
F: 12044191----T: 12049706 	 St: c0bc0000 Sz: 36864 	 Sm: 0 	 T: memcpy_h2d(3.723835)
F: 12049706----T: 12054347 	 St: c0bc9000 Sz: 28672 	 Sm: 0 	 T: memcpy_h2d(3.133693)
F: 12054347----T: 12068637 	 St: c0a20000 Sz: 114688 	 Sm: 0 	 T: memcpy_h2d(9.648886)
F: 12068637----T: 12072067 	 St: c0a3c000 Sz: 16384 	 Sm: 0 	 T: memcpy_h2d(2.316003)
F: 12072067----T: 12076708 	 St: c0bb0000 Sz: 28672 	 Sm: 0 	 T: memcpy_h2d(3.133693)
F: 12076708----T: 12082223 	 St: c0bb7000 Sz: 36864 	 Sm: 0 	 T: memcpy_h2d(3.723835)
F: 12082223----T: 12085023 	 St: c0a90000 Sz: 8192 	 Sm: 0 	 T: memcpy_h2d(1.890614)
F: 12085023----T: 12092803 	 St: c0a92000 Sz: 57344 	 Sm: 0 	 T: memcpy_h2d(5.253207)
F: 12092803----T: 12131522 	 St: c0a40000 Sz: 327680 	 Sm: 0 	 T: memcpy_h2d(26.143822)
F: 12131522----T: 12162715 	 St: c0aa0000 Sz: 262144 	 Sm: 0 	 T: memcpy_h2d(21.062120)
F: 12162715----T: 12239084 	 St: c0b10000 Sz: 655360 	 Sm: 0 	 T: memcpy_h2d(51.565834)
F: 12229036----T: 12471116 	 St: c0800000 Sz: 2097152 	 Sm: 0 	 T: write_back(163.457123)
F: 12239084----T: 12247786 	 St: c0bd0000 Sz: 65536 	 Sm: 0 	 T: memcpy_h2d(5.875760)
F: 12247786----T: 12256488 	 St: c0bf0000 Sz: 65536 	 Sm: 0 	 T: memcpy_h2d(5.875760)
F: 12256488----T: 12259918 	 St: c06e0000 Sz: 16384 	 Sm: 0 	 T: memcpy_h2d(2.316003)
F: 12259918----T: 12266783 	 St: c06e4000 Sz: 49152 	 Sm: 0 	 T: memcpy_h2d(4.635382)
F: 12266783----T: 12273195 	 St: c06f0000 Sz: 45056 	 Sm: 0 	 T: memcpy_h2d(4.329507)
F: 12273195----T: 12277007 	 St: c06fb000 Sz: 20480 	 Sm: 0 	 T: memcpy_h2d(2.573936)
F: 12277007----T: 12280819 	 St: c0700000 Sz: 20480 	 Sm: 0 	 T: memcpy_h2d(2.573936)
F: 12280819----T: 12287231 	 St: c0705000 Sz: 45056 	 Sm: 0 	 T: memcpy_h2d(4.329507)
F: 12287231----T: 12289836 	 St: c07e0000 Sz: 4096 	 Sm: 0 	 T: memcpy_h2d(1.758947)
F: 12289836----T: 12294910 	 St: c07e1000 Sz: 32768 	 Sm: 0 	 T: memcpy_h2d(3.426064)
F: 12294910----T: 12297710 	 St: c07e9000 Sz: 8192 	 Sm: 0 	 T: memcpy_h2d(1.890614)
F: 12297710----T: 12300315 	 St: c07eb000 Sz: 4096 	 Sm: 0 	 T: memcpy_h2d(1.758947)
F: 12300315----T: 12303745 	 St: c07ec000 Sz: 16384 	 Sm: 0 	 T: memcpy_h2d(2.316003)
F: 12303745----T: 12310610 	 St: c0600000 Sz: 49152 	 Sm: 0 	 T: memcpy_h2d(4.635382)
F: 12310610----T: 12314040 	 St: c060c000 Sz: 16384 	 Sm: 0 	 T: memcpy_h2d(2.316003)
F: 12314040----T: 12322742 	 St: c0610000 Sz: 65536 	 Sm: 0 	 T: memcpy_h2d(5.875760)
F: 12322742----T: 12326172 	 St: c07c0000 Sz: 16384 	 Sm: 0 	 T: memcpy_h2d(2.316003)
F: 12326172----T: 12329984 	 St: c07c4000 Sz: 20480 	 Sm: 0 	 T: memcpy_h2d(2.573936)
F: 12329984----T: 12334625 	 St: c07c9000 Sz: 28672 	 Sm: 0 	 T: memcpy_h2d(3.133693)
F: 12334625----T: 12345647 	 St: c0620000 Sz: 86016 	 Sm: 0 	 T: memcpy_h2d(7.442269)
F: 12345647----T: 12352059 	 St: c0635000 Sz: 45056 	 Sm: 0 	 T: memcpy_h2d(4.329507)
F: 12352059----T: 12356700 	 St: c07b0000 Sz: 28672 	 Sm: 0 	 T: memcpy_h2d(3.133693)
F: 12356700----T: 12362215 	 St: c07b7000 Sz: 36864 	 Sm: 0 	 T: memcpy_h2d(3.723835)
F: 12362215----T: 12365015 	 St: c0690000 Sz: 8192 	 Sm: 0 	 T: memcpy_h2d(1.890614)
F: 12365015----T: 12372795 	 St: c0692000 Sz: 57344 	 Sm: 0 	 T: memcpy_h2d(5.253207)
F: 12372795----T: 12385683 	 St: c0640000 Sz: 102400 	 Sm: 0 	 T: memcpy_h2d(8.702229)
F: 12385683----T: 12389113 	 St: c0659000 Sz: 16384 	 Sm: 0 	 T: memcpy_h2d(2.316003)
F: 12389113----T: 12402468 	 St: c065d000 Sz: 106496 	 Sm: 0 	 T: memcpy_h2d(9.017555)
F: 12402468----T: 12412095 	 St: c0677000 Sz: 73728 	 Sm: 0 	 T: memcpy_h2d(6.500338)
F: 12412095----T: 12416314 	 St: c0689000 Sz: 24576 	 Sm: 0 	 T: memcpy_h2d(2.848751)
F: 12416314----T: 12418919 	 St: c068f000 Sz: 4096 	 Sm: 0 	 T: memcpy_h2d(1.758947)
F: 12418919----T: 12450112 	 St: c06a0000 Sz: 262144 	 Sm: 0 	 T: memcpy_h2d(21.062120)
F: 12450112----T: 12526481 	 St: c0710000 Sz: 655360 	 Sm: 0 	 T: memcpy_h2d(51.565834)
F: 12526481----T: 12535183 	 St: c07d0000 Sz: 65536 	 Sm: 0 	 T: memcpy_h2d(5.875760)
F: 12535183----T: 12543885 	 St: c07f0000 Sz: 65536 	 Sm: 0 	 T: memcpy_h2d(5.875760)
F: 12544131----T: 12546736 	 St: 0 Sz: 4096 	 Sm: 0 	 T: device_sync(1.758947)
F: 12544131----T: 12552371 	 St: 0 Sz: 61440 	 Sm: 0 	 T: device_sync(5.563808)
F: 12554976----T: 12557581 	 St: 0 Sz: 4096 	 Sm: 0 	 T: device_sync(1.758947)
F: 12554976----T: 12563216 	 St: 0 Sz: 61440 	 Sm: 0 	 T: device_sync(5.563808)
F: 12565821----T: 12568426 	 St: 0 Sz: 4096 	 Sm: 0 	 T: device_sync(1.758947)
F: 12565821----T: 12581516 	 St: 0 Sz: 126976 	 Sm: 0 	 T: device_sync(10.597569)
F: 12584121----T: 12586726 	 St: 0 Sz: 4096 	 Sm: 0 	 T: device_sync(1.758947)
F: 12584121----T: 12614844 	 St: 0 Sz: 258048 	 Sm: 0 	 T: device_sync(20.744766)
F: 12617449----T: 12620054 	 St: 0 Sz: 4096 	 Sm: 0 	 T: device_sync(1.758947)
F: 12617449----T: 12678285 	 St: 0 Sz: 520192 	 Sm: 0 	 T: device_sync(41.077652)
F: 12680890----T: 12683495 	 St: 0 Sz: 4096 	 Sm: 0 	 T: device_sync(1.758947)
F: 12680890----T: 12719609 	 St: 0 Sz: 327680 	 Sm: 0 	 T: device_sync(26.143822)
Tot_prefetch_time: 0(cycle), 0.000000(us)
Tot_kernel_exec_time: 12321981(cycle), 8320.041016(us)
Tot_kernel_exec_time_and_fault_time: 60506316(cycle), 40855.042969(us)
Tot_memcpy_h2d_time: 12149988(cycle), 8203.908203(us)
Tot_memcpy_d2h_time: 0(cycle), 0.000000(us)
Tot_memcpy_time: 12149988(cycle), 8203.908203(us)
Tot_devicesync_time: 178083(cycle), 120.245102(us)
Tot_writeback_time: 9199040(cycle), 6211.370605(us)
Tot_dma_time: 0(cycle), 0.000000(us)
Tot_memcpy_d2h_sync_wb_time: 9377123(cycle), 6331.615723(us)
GPGPU-Sim: *** exit detected ***
