

        *** GPGPU-Sim Simulator Version 3.2.2  [build gpgpu-sim_git-commit-32a5e88e7f0bd0281e1f3b1056e517909662bd85_modified_0] ***


GPGPU-Sim PTX: simulation mode 0 (can change with PTX_SIM_MODE_FUNC environment variable:
               1=functional simulation only, 0=detailed performance simulator)
GPGPU-Sim: Configuration options:

-network_mode                           1 # Interconnection network mode
-inter_config_file   config_fermi_islip.icnt # Interconnection network config file
-gpgpu_ptx_use_cuobjdump                    1 # Use cuobjdump to extract ptx and sass from binaries
-gpgpu_experimental_lib_support                    0 # Try to extract code from cuda libraries [Broken because of unknown cudaGetExportTable]
-gpgpu_ptx_convert_to_ptxplus                    0 # Convert SASS (native ISA) to ptxplus and run ptxplus
-gpgpu_ptx_force_max_capability                   20 # Force maximum compute capability
-gpgpu_ptx_inst_debug_to_file                    0 # Dump executed instructions' debug information to file
-gpgpu_ptx_inst_debug_file       inst_debug.txt # Executed instructions' debug output file
-gpgpu_ptx_inst_debug_thread_uid                    1 # Thread UID for executed instructions' debug output
-gpgpu_simd_model                       1 # 1 = post-dominator
-gpgpu_shader_core_pipeline              2048:32 # shader core pipeline config, i.e., {<nthread>:<warpsize>}
-gpgpu_tex_cache:l1  16:128:24,L:R:m:N:L,F:128:4,128:2 # per-shader L1 texture cache  (READ-ONLY) config  {<nsets>:<bsize>:<assoc>,<rep>:<wr>:<alloc>:<wr_alloc>,<mshr>:<N>:<merge>,<mq>:<rf>}
-gpgpu_const_cache:l1 128:64:2,L:R:f:N:L,A:2:64,4 # per-shader L1 constant memory cache  (READ-ONLY) config  {<nsets>:<bsize>:<assoc>,<rep>:<wr>:<alloc>:<wr_alloc>,<mshr>:<N>:<merge>,<mq>} 
-gpgpu_cache:il1     8:128:4,L:R:f:N:L,A:2:48,4 # shader L1 instruction cache config  {<nsets>:<bsize>:<assoc>,<rep>:<wr>:<alloc>:<wr_alloc>,<mshr>:<N>:<merge>,<mq>} 
-gpgpu_cache:dl1     64:128:6,L:L:m:N:H,A:128:8,8 # per-shader L1 data cache config  {<nsets>:<bsize>:<assoc>,<rep>:<wr>:<alloc>:<wr_alloc>,<mshr>:<N>:<merge>,<mq> | none}
-gpgpu_cache:dl1PrefL1                 none # per-shader L1 data cache config  {<nsets>:<bsize>:<assoc>,<rep>:<wr>:<alloc>:<wr_alloc>,<mshr>:<N>:<merge>,<mq> | none}
-gpgpu_cache:dl1PrefShared                 none # per-shader L1 data cache config  {<nsets>:<bsize>:<assoc>,<rep>:<wr>:<alloc>:<wr_alloc>,<mshr>:<N>:<merge>,<mq> | none}
-gmem_skip_L1D                          1 # global memory access skip L1D cache (implements -Xptxas -dlcm=cg, default=no skip)
-gpgpu_perfect_mem                      0 # enable perfect memory mode (no cache miss)
-n_regfile_gating_group                    4 # group of lanes that should be read/written together)
-gpgpu_clock_gated_reg_file                    0 # enable clock gated reg file for power calculations
-gpgpu_clock_gated_lanes                    0 # enable clock gated lanes for power calculations
-gpgpu_shader_registers                65536 # Number of registers per shader core. Limits number of concurrent CTAs. (default 8192)
-gpgpu_shader_cta                      32 # Maximum number of concurrent CTAs in shader (default 8)
-gpgpu_num_cta_barriers                   16 # Maximum number of named barriers per CTA (default 16)
-gpgpu_n_clusters                      28 # number of processing clusters
-gpgpu_n_cores_per_cluster                    1 # number of simd cores per cluster
-gpgpu_n_cluster_ejection_buffer_size                    8 # number of packets in ejection buffer
-gpgpu_n_ldst_response_buffer_size                    2 # number of response packets in ld/st unit ejection buffer
-gpgpu_shmem_size                   16384 # Size of shared memory per shader core (default 16kB)
-gpgpu_shmem_size                   98304 # Size of shared memory per shader core (default 16kB)
-gpgpu_shmem_size_PrefL1                16384 # Size of shared memory per shader core (default 16kB)
-gpgpu_shmem_size_PrefShared                16384 # Size of shared memory per shader core (default 16kB)
-gpgpu_shmem_num_banks                   32 # Number of banks in the shared memory in each shader core (default 16)
-gpgpu_shmem_limited_broadcast                    0 # Limit shared memory to do one broadcast per cycle (default on)
-gpgpu_shmem_warp_parts                    1 # Number of portions a warp is divided into for shared memory bank conflict check 
-gpgpu_warpdistro_shader                   -1 # Specify which shader core to collect the warp size distribution from
-gpgpu_warp_issue_shader                    0 # Specify which shader core to collect the warp issue distribution from
-gpgpu_local_mem_map                    1 # Mapping from local memory space address to simulated GPU physical address space (default = enabled)
-gpgpu_num_reg_banks                   32 # Number of register banks (default = 8)
-gpgpu_reg_bank_use_warp_id                    0 # Use warp ID in mapping registers to banks (default = off)
-gpgpu_operand_collector_num_units_sp                   20 # number of collector units (default = 4)
-gpgpu_operand_collector_num_units_sfu                    4 # number of collector units (default = 4)
-gpgpu_operand_collector_num_units_mem                    8 # number of collector units (default = 2)
-gpgpu_operand_collector_num_units_gen                    0 # number of collector units (default = 0)
-gpgpu_operand_collector_num_in_ports_sp                    4 # number of collector unit in ports (default = 1)
-gpgpu_operand_collector_num_in_ports_sfu                    1 # number of collector unit in ports (default = 1)
-gpgpu_operand_collector_num_in_ports_mem                    1 # number of collector unit in ports (default = 1)
-gpgpu_operand_collector_num_in_ports_gen                    0 # number of collector unit in ports (default = 0)
-gpgpu_operand_collector_num_out_ports_sp                    4 # number of collector unit in ports (default = 1)
-gpgpu_operand_collector_num_out_ports_sfu                    1 # number of collector unit in ports (default = 1)
-gpgpu_operand_collector_num_out_ports_mem                    1 # number of collector unit in ports (default = 1)
-gpgpu_operand_collector_num_out_ports_gen                    0 # number of collector unit in ports (default = 0)
-gpgpu_coalesce_arch                   13 # Coalescing arch (default = 13, anything else is off for now)
-gpgpu_num_sched_per_core                    2 # Number of warp schedulers per core
-gpgpu_max_insn_issue_per_warp                    2 # Max number of instructions that can be issued per warp in one cycle by scheduler
-gpgpu_simt_core_sim_order                    1 # Select the simulation order of cores in a cluster (0=Fix, 1=Round-Robin)
-gpgpu_pipeline_widths        4,1,1,4,1,1,6 # Pipeline widths ID_OC_SP,ID_OC_SFU,ID_OC_MEM,OC_EX_SP,OC_EX_SFU,OC_EX_MEM,EX_WB
-gpgpu_num_sp_units                     4 # Number of SP units (default=1)
-gpgpu_num_sfu_units                    1 # Number of SF units (default=1)
-gpgpu_num_mem_units                    1 # Number if ldst units (default=1) WARNING: not hooked up to anything
-gpgpu_scheduler                      gto # Scheduler configuration: < lrr | gto | two_level_active > If two_level_active:<num_active_warps>:<inner_prioritization>:<outer_prioritization>For complete list of prioritization values see shader.h enum scheduler_prioritization_typeDefault: gto
-gpgpu_concurrent_kernel_sm                    0 # Support concurrent kernels on a SM (default = disabled)
-tlb_size                            4096 # Number of tlb entries per SM.
-gpgpu_dram_scheduler                    1 # 0 = fifo, 1 = FR-FCFS (defaul)
-gpgpu_dram_partition_queues              8:8:8:8 # i2$:$2d:d2$:$2i
-l2_ideal                               0 # Use a ideal L2 cache that always hit
-gpgpu_cache:dl2     64:128:16,L:B:m:W:L,A:1024:1024,4:0,32 # unified banked L2 data cache config  {<nsets>:<bsize>:<assoc>,<rep>:<wr>:<alloc>:<wr_alloc>,<mshr>:<N>:<merge>,<mq>}
-gpgpu_cache:dl2_texture_only                    0 # L2 cache used for texture only
-gpgpu_n_mem                           11 # number of memory modules (e.g. memory controllers) in gpu
-gpgpu_n_sub_partition_per_mchannel                    2 # number of memory subpartition in each memory module
-gpgpu_n_mem_per_ctrlr                    1 # number of memory chips per memory controller
-gpgpu_memlatency_stat                   14 # track and display latency statistics 0x2 enables MC, 0x4 enables queue logs
-gpgpu_frfcfs_dram_sched_queue_size                   64 # 0 = unlimited (default); # entries per chip
-gpgpu_dram_return_queue_size                  116 # 0 = unlimited (default); # entries per chip
-gpgpu_dram_buswidth                    4 # default = 4 bytes (8 bytes per cycle at DDR)
-gpgpu_dram_burst_length                    8 # Burst length of each DRAM request (default = 4 data bus cycle)
-dram_data_command_freq_ratio                    4 # Frequency ratio between DRAM data bus and command bus (default = 2 times, i.e. DDR)
-gpgpu_dram_timing_opt nbk=16:CCD=2:RRD=6:RCD=12:RAS=28:RP=12:RC=40: CL=12:WL=4:CDLR=5:WR=12:nbkgrp=1:CCDL=0:RTPL=0 # DRAM timing parameters = {nbk:tCCD:tRRD:tRCD:tRAS:tRP:tRC:CL:WL:tCDLR:tWR:nbkgrp:tCCDL:tRTPL}
-rop_latency                          120 # ROP queue latency (default 85)
-dram_latency                         100 # DRAM latency (default 30)
-gpgpu_mem_addr_mapping dramid@8;00000000.00000000.00000000.00000000.0000RRRR.RRRRRRRR.RBBBCCCC.BCCSSSSS # mapping memory address to dram model {dramid@<start bit>;<memory address map>}
-gpgpu_mem_addr_test                    0 # run sweep test to check address mapping for aliased address
-gpgpu_mem_address_mask                    1 # 0 = old addressing mask, 1 = new addressing mask, 2 = new add. mask + flipped bank sel and chip sel bits
-gpuwattch_xml_file  gpuwattch_geforcegtx1080ti.xml # GPUWattch XML file
-power_simulation_enabled                    1 # Turn on power simulator (1=On, 0=Off)
-power_per_cycle_dump                    0 # Dump detailed power output each cycle
-power_trace_enabled                    0 # produce a file for the power trace (1=On, 0=Off)
-power_trace_zlevel                     6 # Compression level of the power trace output log (0=no comp, 9=highest)
-steady_power_levels_enabled                    0 # produce a file for the steady power levels (1=On, 0=Off)
-steady_state_definition                  8:4 # allowed deviation:number of samples
-gpgpu_max_cycle                        0 # terminates gpu simulation early (0 = no limit)
-gpgpu_max_insn                         0 # terminates gpu simulation early (0 = no limit)
-gpgpu_max_cta                          0 # terminates gpu simulation early (0 = no limit)
-gpgpu_runtime_stat                   500 # display runtime statistics such as dram utilization {<freq>:<flag>}
-liveness_message_freq                    1 # Minimum number of seconds between simulation liveness messages (0 = always print)
-gpgpu_flush_l1_cache                    0 # Flush L1 cache at the end of each kernel call
-gpgpu_flush_l2_cache                    0 # Flush L2 cache at the end of each kernel call
-gpgpu_deadlock_detect                    0 # Stop the simulation at deadlock (1=on (default), 0=off)
-gpgpu_ptx_instruction_classification                    0 # if enabled will classify ptx instruction types per kernel (Max 255 kernels now)
-gpgpu_ptx_sim_mode                     0 # Select between Performance (default) or Functional simulation (1)
-gpgpu_clock_domains 1481.0:2962.0:1481.0:2750.0 # Clock Domain Frequencies in MhZ {<Core Clock>:<ICNT Clock>:<L2 Clock>:<DRAM Clock>}
-gpgpu_max_concurrent_kernel                    8 # maximum kernels that can run concurrently on GPU
-gpgpu_cflog_interval                    0 # Interval between each snapshot in control flow logger
-visualizer_enabled                     0 # Turn on visualizer output (1=On, 0=Off)
-visualizer_outputfile                 NULL # Specifies the output log file for visualizer
-visualizer_zlevel                      6 # Compression level of the visualizer output log (0=no comp, 9=highest)
-trace_enabled                          0 # Turn on traces
-trace_components                    none # comma seperated list of traces to enable. Complete list found in trace_streams.tup. Default none
-trace_sampling_core                    0 # The core which is printed using CORE_DPRINTF. Default 0
-trace_sampling_memory_partition                   -1 # The memory partition which is printed using MEMPART_DPRINTF. Default -1 (i.e. all)
-gddr_size                           19MB # Size of GDDR in MB/GB.(GLOBAL_HEAP_START, GLOBAL_HEAP_START + gddr_size) would be used for unmanged memory, (GLOBAL_HEAP_START + gddr_size, GLOBAL_HEAP_START + gddr_size*2) would be used for managed memory. 
-page_table_walk_latency                  100 # Average page table walk latency (in core cycle).
-eviction_policy                        0 # Select page eviction policy
-invalidate_clean                       0 # Should directly invalidate clean pages
-reserve_accessed_page_percent                    0 # Percentage of accessed pages reserved from eviction in hope that they will be accessed in next iteration.
-percentage_of_free_page_buffer                    0 # Percentage of free page buffer to trigger the page eviction.
-page_size                            4KB # GDDR page size, only 4KB/2MB avaliable.
-pcie_bandwidth                  16.0GB/s # PCI-e bandwidth per direction, in GB/s.
-enable_dma                             0 # Enable direct access to CPU memory
-multiply_dma_penalty                    2 # Oversubscription Multiplicative Penalty Factor for Adaptive DMA
-migrate_threshold                      8 # Access counter threshold for migrating the page from cpu to gpu
-sim_prof_enable                        1 # Enable gpgpu-sim profiler
-hardware_prefetch                      1 # Select gpgpu-sim hardware prefetcher
-hwprefetch_oversub                     1 # Select gpgpu-sim hardware prefetcher under over-subscription
-page_fault_latency                 66645 # Average fault latency (in core cycle).
-enable_accurate_simulation                    0 # Enable page fault functional simulation.
-enable_smart_runtime                    0 # Enable access pattern detection, policy engine, and adaptive memory management.
-enable_ptx_file_line_stats                    1 # Turn on PTX source line statistic profiling. (1 = On)
-ptx_line_stats_filename gpgpu_inst_stats.txt # Output file for PTX source line statistics.
-gpgpu_kernel_launch_latency               222150 # Kernel launch latency in cycles. Default: 0
-gpgpu_cdp_enabled                      0 # Turn on CDP
-save_embedded_ptx                      0 # saves ptx files embedded in binary as <n>.ptx
-keep                                   0 # keep intermediate files created by GPGPU-Sim when interfacing with external programs
-gpgpu_ptx_save_converted_ptxplus                    0 # Saved converted ptxplus to a file
-ptx_opcode_latency_int         4,13,4,5,145 # Opcode latencies for integers <ADD,MAX,MUL,MAD,DIV>Default 1,1,19,25,145
-ptx_opcode_latency_fp          4,13,4,5,39 # Opcode latencies for single precision floating points <ADD,MAX,MUL,MAD,DIV>Default 1,1,1,1,30
-ptx_opcode_latency_dp         8,19,8,8,330 # Opcode latencies for double precision floating points <ADD,MAX,MUL,MAD,DIV>Default 8,8,8,8,335
-ptx_opcode_initiation_int            1,2,2,2,8 # Opcode initiation intervals for integers <ADD,MAX,MUL,MAD,DIV>Default 1,1,4,4,32
-ptx_opcode_initiation_fp            1,2,1,1,4 # Opcode initiation intervals for single precision floating points <ADD,MAX,MUL,MAD,DIV>Default 1,1,1,1,5
-ptx_opcode_initiation_dp          1,2,1,1,130 # Opcode initiation intervals for double precision floating points <ADD,MAX,MUL,MAD,DIV>Default 8,8,8,8,130
-cdp_latency         7200,8000,100,12000,1600 # CDP API latency <cudaStreamCreateWithFlags, cudaGetParameterBufferV2_init_perWarp, cudaGetParameterBufferV2_perKernel, cudaLaunchDeviceV2_init_perWarp, cudaLaunchDevicV2_perKernel>Default 7200,8000,100,12000,1600
DRAM Timing Options:
nbk                                    16 # number of banks
CCD                                     2 # column to column delay
RRD                                     6 # minimal delay between activation of rows in different banks
RCD                                    12 # row to column delay
RAS                                    28 # time needed to activate row
RP                                     12 # time needed to precharge (deactivate) row
RC                                     40 # row cycle time
CDLR                                    5 # switching from write to read (changes tWTR)
WR                                     12 # last data-in to row precharge
CL                                     12 # CAS latency
WL                                      4 # Write latency
nbkgrp                                  1 # number of bank groups
CCDL                                    0 # column to column delay between accesses to different bank groups
RTPL                                    0 # read to precharge delay between accesses to different bank groups
Total number of memory sub partition = 22
addr_dec_mask[CHIP]  = 0000000000000000 	high:64 low:0
addr_dec_mask[BK]    = 0000000000007080 	high:15 low:7
addr_dec_mask[ROW]   = 000000000fff8000 	high:28 low:15
addr_dec_mask[COL]   = 0000000000000f7f 	high:12 low:0
addr_dec_mask[BURST] = 000000000000001f 	high:5 low:0
sub_partition_id_mask = 0000000000000080
GPGPU-Sim uArch: clock freqs: 1481000000.000000:2962000000.000000:1481000000.000000:2750000000.000000
GPGPU-Sim uArch: clock periods: 0.00000000067521944632:0.00000000033760972316:0.00000000067521944632:0.00000000036363636364
*** Initializing Memory Statistics ***
GPGPU-Sim uArch: interconnect node map (shaderID+MemID to icntID)
GPGPU-Sim uArch: Memory nodes ID start from index: 28
GPGPU-Sim uArch:    0   1   2   3   4   5   6
GPGPU-Sim uArch:    7   8   9  10  11  12  13
GPGPU-Sim uArch:   14  15  16  17  18  19  20
GPGPU-Sim uArch:   21  22  23  24  25  26  27
GPGPU-Sim uArch:   28  29  30  31  32  33  34
GPGPU-Sim uArch:   35  36  37  38  39  40  41
GPGPU-Sim uArch:   42  43  44  45  46  47  48
GPGPU-Sim uArch:   49
GPGPU-Sim uArch: interconnect node reverse map (icntID to shaderID+MemID)
GPGPU-Sim uArch: Memory nodes start from ID: 28
GPGPU-Sim uArch:    0   1   2   3   4   5   6
GPGPU-Sim uArch:    7   8   9  10  11  12  13
GPGPU-Sim uArch:   14  15  16  17  18  19  20
GPGPU-Sim uArch:   21  22  23  24  25  26  27
GPGPU-Sim uArch:   28  29  30  31  32  33  34
GPGPU-Sim uArch:   35  36  37  38  39  40  41
GPGPU-Sim uArch:   42  43  44  45  46  47  48
GPGPU-Sim uArch:   49
cb0b643f092edf881604309deebf8c36  /root/gpgpu-sim_UVMSmart/benchmarks/Managed/sssp/sssp
GPGPU-Sim uArch: performance model initialization complete.
GPGPU-Sim PTX: __cudaRegisterFatBinary, fat_cubin_handle = 1, filename=default
self exe links to: /root/gpgpu-sim_UVMSmart/benchmarks/Managed/sssp/sssp
Running md5sum using "md5sum /root/gpgpu-sim_UVMSmart/benchmarks/Managed/sssp/sssp "
Parsing file _cuobjdump_complete_output_mC6nGF
######### cuobjdump parser ########
## Adding new section ELF
Adding arch: sm_20
Adding identifier: default
## Adding new section ELF
Adding arch: sm_20
Adding identifier: default
## Adding new section PTX
Adding ptx filename: _cuobjdump_1.ptx
Adding arch: sm_20
Adding identifier: default
Done parsing!!!
GPGPU-Sim PTX: __cudaRegisterFunction _Z7Kernel2PKiS0_PKfPbPfS4_i : hostFun 0x0x401f7d, fat_cubin_handle = 1
GPGPU-Sim PTX: instruction assembly for function '_Z16initializeArraysPbPfS0_ii'...   done.
GPGPU-Sim PTX: finding reconvergence points for '_Z16initializeArraysPbPfS0_ii'...
GPGPU-Sim PTX: Finding dominators for '_Z16initializeArraysPbPfS0_ii'...
GPGPU-Sim PTX: Finding immediate dominators for '_Z16initializeArraysPbPfS0_ii'...
GPGPU-Sim PTX: Finding postdominators for '_Z16initializeArraysPbPfS0_ii'...
GPGPU-Sim PTX: Finding immediate postdominators for '_Z16initializeArraysPbPfS0_ii'...
GPGPU-Sim PTX: pre-decoding instructions for '_Z16initializeArraysPbPfS0_ii'...
GPGPU-Sim PTX: reconvergence points for _Z16initializeArraysPbPfS0_ii...
GPGPU-Sim PTX:  1 (potential) branch divergence @  PC=0x060 (_1.ptx:40) @%p1 bra BB0_4;
GPGPU-Sim PTX:    immediate post dominator      @  PC=0x120 (_1.ptx:71) ret;
GPGPU-Sim PTX:  2 (potential) branch divergence @  PC=0x088 (_1.ptx:46) @%p2 bra BB0_3;
GPGPU-Sim PTX:    immediate post dominator      @  PC=0x120 (_1.ptx:71) ret;
GPGPU-Sim PTX:  3 (potential) branch divergence @  PC=0x090 (_1.ptx:47) bra.uni BB0_2;
GPGPU-Sim PTX:    immediate post dominator      @  PC=0x0e0 (_1.ptx:61) mov.u16 %rs1, 0;
GPGPU-Sim PTX:  4 (potential) branch divergence @  PC=0x0d8 (_1.ptx:58) bra.uni BB0_4;
GPGPU-Sim PTX:    immediate post dominator      @  PC=0x120 (_1.ptx:71) ret;
GPGPU-Sim PTX: ... end of reconvergence points for _Z16initializeArraysPbPfS0_ii
GPGPU-Sim PTX: ... done pre-decoding instructions for '_Z16initializeArraysPbPfS0_ii'.
GPGPU-Sim PTX: instruction assembly for function '_Z7Kernel1PKiS0_PKfPbPfS4_ii'...   done.
GPGPU-Sim PTX: finding reconvergence points for '_Z7Kernel1PKiS0_PKfPbPfS4_ii'...
GPGPU-Sim PTX: Finding dominators for '_Z7Kernel1PKiS0_PKfPbPfS4_ii'...
GPGPU-Sim PTX: Finding immediate dominators for '_Z7Kernel1PKiS0_PKfPbPfS4_ii'...
GPGPU-Sim PTX: Finding postdominators for '_Z7Kernel1PKiS0_PKfPbPfS4_ii'...
GPGPU-Sim PTX: Finding immediate postdominators for '_Z7Kernel1PKiS0_PKfPbPfS4_ii'...
GPGPU-Sim PTX: pre-decoding instructions for '_Z7Kernel1PKiS0_PKfPbPfS4_ii'...
GPGPU-Sim PTX: reconvergence points for _Z7Kernel1PKiS0_PKfPbPfS4_ii...
GPGPU-Sim PTX:  1 (potential) branch divergence @  PC=0x190 (_1.ptx:106) @%p1 bra BB1_9;
GPGPU-Sim PTX:    immediate post dominator      @  PC=0x2f0 (_1.ptx:163) ret;
GPGPU-Sim PTX:  2 (potential) branch divergence @  PC=0x1c0 (_1.ptx:113) @%p2 bra BB1_9;
GPGPU-Sim PTX:    immediate post dominator      @  PC=0x2f0 (_1.ptx:163) ret;
GPGPU-Sim PTX:  3 (potential) branch divergence @  PC=0x208 (_1.ptx:123) @%p3 bra BB1_4;
GPGPU-Sim PTX:    immediate post dominator      @  PC=0x218 (_1.ptx:128) setp.ge.s32%p4, %r19, %r18;
GPGPU-Sim PTX:  4 (potential) branch divergence @  PC=0x220 (_1.ptx:129) @%p4 bra BB1_9;
GPGPU-Sim PTX:    immediate post dominator      @  PC=0x2f0 (_1.ptx:163) ret;
GPGPU-Sim PTX:  5 (potential) branch divergence @  PC=0x2d0 (_1.ptx:156) @%p5 bra BB1_7;
GPGPU-Sim PTX:    immediate post dominator      @  PC=0x2d8 (_1.ptx:158) add.s32 %r19, %r19, 1;
GPGPU-Sim PTX:  6 (potential) branch divergence @  PC=0x2e8 (_1.ptx:160) @%p6 bra BB1_6;
GPGPU-Sim PTX:    immediate post dominator      @  PC=0x2f0 (_1.ptx:163) ret;
GPGPU-Sim PTX: ... end of reconvergence points for _Z7Kernel1PKiS0_PKfPbPfS4_ii
GPGPU-Sim PTX: ... done pre-decoding instructions for '_Z7Kernel1PKiS0_PKfPbPfS4_ii'.
GPGPU-Sim PTX: instruction assembly for function '_Z7Kernel2PKiS0_PKfPbPfS4_i'...   done.
GPGPU-Sim PTX: finding reconvergence points for '_Z7Kernel2PKiS0_PKfPbPfS4_i'...
GPGPU-Sim PTX: Finding dominators for '_Z7Kernel2PKiS0_PKfPbPfS4_i'...
GPGPU-Sim PTX: Finding immediate dominators for '_Z7Kernel2PKiS0_PKfPbPfS4_i'...
GPGPU-Sim PTX: Finding postdominators for '_Z7Kernel2PKiS0_PKfPbPfS4_i'...
GPGPU-Sim PTX: Finding immediate postdominators for '_Z7Kernel2PKiS0_PKfPbPfS4_i'...
GPGPU-Sim PTX: pre-decoding instructions for '_Z7Kernel2PKiS0_PKfPbPfS4_i'...
GPGPU-Sim PTX: reconvergence points for _Z7Kernel2PKiS0_PKfPbPfS4_i...
GPGPU-Sim PTX:  1 (potential) branch divergence @  PC=0x340 (_1.ptx:193) @%p1 bra BB2_4;
GPGPU-Sim PTX:    immediate post dominator      @  PC=0x3d8 (_1.ptx:218) ret;
GPGPU-Sim PTX:  2 (potential) branch divergence @  PC=0x398 (_1.ptx:205) @%p2 bra BB2_3;
GPGPU-Sim PTX:    immediate post dominator      @  PC=0x3d0 (_1.ptx:215) st.global.f32 [%rd3], %f4;
GPGPU-Sim PTX: ... end of reconvergence points for _Z7Kernel2PKiS0_PKfPbPfS4_i
GPGPU-Sim PTX: ... done pre-decoding instructions for '_Z7Kernel2PKiS0_PKfPbPfS4_i'.
GPGPU-Sim PTX: finished parsing EMBEDDED .ptx file _1.ptx
Adding _cuobjdump_1.ptx with cubin handle 1
GPGPU-Sim PTX: extracting embedded .ptx to temporary file "_ptx_57DjAf"
Running: cat _ptx_57DjAf | sed 's/.version 1.5/.version 1.4/' | sed 's/, texmode_independent//' | sed 's/\(\.extern \.const\[1\] .b8 \w\+\)\[\]/\1\[1\]/' | sed 's/const\[.\]/const\[0\]/g' > _ptx2_sEiguP
GPGPU-Sim PTX: generating ptxinfo using "$CUDA_INSTALL_PATH/bin/ptxas --gpu-name=sm_20 -v _ptx2_sEiguP --output-file  /dev/null 2> _ptx_57DjAfinfo"
GPGPU-Sim PTX: Kernel '_Z7Kernel1PKiS0_PKfPbPfS4_ii' : regs=14, lmem=0, smem=0, cmem=88
GPGPU-Sim PTX: Kernel '_Z16initializeArraysPbPfS0_ii' : regs=9, lmem=0, smem=0, cmem=64
GPGPU-Sim PTX: Kernel '_Z7Kernel2PKiS0_PKfPbPfS4_i' : regs=12, lmem=0, smem=0, cmem=84
GPGPU-Sim PTX: removing ptxinfo using "rm -f _ptx_57DjAf _ptx2_sEiguP _ptx_57DjAfinfo"
GPGPU-Sim PTX: loading globals with explicit initializers... 
GPGPU-Sim PTX: finished loading globals (0 bytes total).
GPGPU-Sim PTX: loading constants with explicit initializers...  done.
GPGPU-Sim PTX: __cudaRegisterFunction _Z7Kernel1PKiS0_PKfPbPfS4_ii : hostFun 0x0x401da9, fat_cubin_handle = 1
GPGPU-Sim PTX: __cudaRegisterFunction _Z16initializeArraysPbPfS0_ii : hostFun 0x0x401bc3, fat_cubin_handle = 1

GPGPU-Sim PTX: cudaLaunch for 0x0x401bc3 (mode=performance simulation) on stream 0
GPGPU-Sim PTX: pushing kernel '_Z16initializeArraysPbPfS0_ii' to stream 0, gridDim= (65536,1,1) blockDim = (16,1,1) 
GPGPU-Sim uArch: Shader 1 bind to kernel 1 '_Z16initializeArraysPbPfS0_ii'
GPGPU-Sim uArch: CTA/core = 32, limited by: cta_limit
GPGPU-Sim uArch: Shader 2 bind to kernel 1 '_Z16initializeArraysPbPfS0_ii'
GPGPU-Sim uArch: Shader 3 bind to kernel 1 '_Z16initializeArraysPbPfS0_ii'
GPGPU-Sim uArch: Shader 4 bind to kernel 1 '_Z16initializeArraysPbPfS0_ii'
GPGPU-Sim uArch: Shader 5 bind to kernel 1 '_Z16initializeArraysPbPfS0_ii'
GPGPU-Sim uArch: Shader 6 bind to kernel 1 '_Z16initializeArraysPbPfS0_ii'
GPGPU-Sim uArch: Shader 7 bind to kernel 1 '_Z16initializeArraysPbPfS0_ii'
GPGPU-Sim uArch: Shader 8 bind to kernel 1 '_Z16initializeArraysPbPfS0_ii'
GPGPU-Sim uArch: Shader 9 bind to kernel 1 '_Z16initializeArraysPbPfS0_ii'
GPGPU-Sim uArch: Shader 10 bind to kernel 1 '_Z16initializeArraysPbPfS0_ii'
GPGPU-Sim uArch: Shader 11 bind to kernel 1 '_Z16initializeArraysPbPfS0_ii'
GPGPU-Sim uArch: Shader 12 bind to kernel 1 '_Z16initializeArraysPbPfS0_ii'
GPGPU-Sim uArch: Shader 13 bind to kernel 1 '_Z16initializeArraysPbPfS0_ii'
GPGPU-Sim uArch: Shader 14 bind to kernel 1 '_Z16initializeArraysPbPfS0_ii'
GPGPU-Sim uArch: Shader 15 bind to kernel 1 '_Z16initializeArraysPbPfS0_ii'
GPGPU-Sim uArch: Shader 16 bind to kernel 1 '_Z16initializeArraysPbPfS0_ii'
GPGPU-Sim uArch: Shader 17 bind to kernel 1 '_Z16initializeArraysPbPfS0_ii'
GPGPU-Sim uArch: Shader 18 bind to kernel 1 '_Z16initializeArraysPbPfS0_ii'
GPGPU-Sim uArch: Shader 19 bind to kernel 1 '_Z16initializeArraysPbPfS0_ii'
GPGPU-Sim uArch: Shader 20 bind to kernel 1 '_Z16initializeArraysPbPfS0_ii'
GPGPU-Sim uArch: Shader 21 bind to kernel 1 '_Z16initializeArraysPbPfS0_ii'
GPGPU-Sim uArch: Shader 22 bind to kernel 1 '_Z16initializeArraysPbPfS0_ii'
GPGPU-Sim uArch: Shader 23 bind to kernel 1 '_Z16initializeArraysPbPfS0_ii'
GPGPU-Sim uArch: Shader 24 bind to kernel 1 '_Z16initializeArraysPbPfS0_ii'
GPGPU-Sim uArch: Shader 25 bind to kernel 1 '_Z16initializeArraysPbPfS0_ii'
GPGPU-Sim uArch: Shader 26 bind to kernel 1 '_Z16initializeArraysPbPfS0_ii'
GPGPU-Sim uArch: Shader 27 bind to kernel 1 '_Z16initializeArraysPbPfS0_ii'
GPGPU-Sim uArch: Shader 0 bind to kernel 1 '_Z16initializeArraysPbPfS0_ii'
GPGPU-Sim uArch: Shader 5 bind to kernel 1 '_Z16initializeArraysPbPfS0_ii'
GPGPU-Sim uArch: Shader 7 bind to kernel 1 '_Z16initializeArraysPbPfS0_ii'
GPGPU-Sim uArch: Shader 16 bind to kernel 1 '_Z16initializeArraysPbPfS0_ii'
GPGPU-Sim uArch: Shader 21 bind to kernel 1 '_Z16initializeArraysPbPfS0_ii'
GPGPU-Sim uArch: Shader 26 bind to kernel 1 '_Z16initializeArraysPbPfS0_ii'
GPGPU-Sim uArch: Shader 27 bind to kernel 1 '_Z16initializeArraysPbPfS0_ii'
GPGPU-Sim uArch: Shader 0 bind to kernel 1 '_Z16initializeArraysPbPfS0_ii'
GPGPU-Sim uArch: Shader 1 bind to kernel 1 '_Z16initializeArraysPbPfS0_ii'
GPGPU-Sim uArch: Shader 2 bind to kernel 1 '_Z16initializeArraysPbPfS0_ii'
GPGPU-Sim uArch: Shader 3 bind to kernel 1 '_Z16initializeArraysPbPfS0_ii'
GPGPU-Sim uArch: Shader 4 bind to kernel 1 '_Z16initializeArraysPbPfS0_ii'
GPGPU-Sim uArch: Shader 5 bind to kernel 1 '_Z16initializeArraysPbPfS0_ii'
GPGPU-Sim uArch: Shader 6 bind to kernel 1 '_Z16initializeArraysPbPfS0_ii'
GPGPU-Sim uArch: Shader 7 bind to kernel 1 '_Z16initializeArraysPbPfS0_ii'
GPGPU-Sim uArch: Shader 8 bind to kernel 1 '_Z16initializeArraysPbPfS0_ii'
GPGPU-Sim uArch: Shader 9 bind to kernel 1 '_Z16initializeArraysPbPfS0_ii'
GPGPU-Sim uArch: Shader 10 bind to kernel 1 '_Z16initializeArraysPbPfS0_ii'
GPGPU-Sim uArch: Shader 11 bind to kernel 1 '_Z16initializeArraysPbPfS0_ii'
GPGPU-Sim uArch: Shader 12 bind to kernel 1 '_Z16initializeArraysPbPfS0_ii'
GPGPU-Sim uArch: Shader 13 bind to kernel 1 '_Z16initializeArraysPbPfS0_ii'
GPGPU-Sim uArch: Shader 14 bind to kernel 1 '_Z16initializeArraysPbPfS0_ii'
GPGPU-Sim uArch: Shader 15 bind to kernel 1 '_Z16initializeArraysPbPfS0_ii'
GPGPU-Sim uArch: Shader 16 bind to kernel 1 '_Z16initializeArraysPbPfS0_ii'
GPGPU-Sim uArch: Shader 17 bind to kernel 1 '_Z16initializeArraysPbPfS0_ii'
GPGPU-Sim uArch: Shader 18 bind to kernel 1 '_Z16initializeArraysPbPfS0_ii'
GPGPU-Sim uArch: Shader 19 bind to kernel 1 '_Z16initializeArraysPbPfS0_ii'
GPGPU-Sim uArch: Shader 20 bind to kernel 1 '_Z16initializeArraysPbPfS0_ii'
GPGPU-Sim uArch: Shader 21 bind to kernel 1 '_Z16initializeArraysPbPfS0_ii'
GPGPU-Sim uArch: Shader 22 bind to kernel 1 '_Z16initializeArraysPbPfS0_ii'
GPGPU-Sim uArch: Shader 23 bind to kernel 1 '_Z16initializeArraysPbPfS0_ii'
GPGPU-Sim uArch: Shader 24 bind to kernel 1 '_Z16initializeArraysPbPfS0_ii'
GPGPU-Sim uArch: Shader 25 bind to kernel 1 '_Z16initializeArraysPbPfS0_ii'
GPGPU-Sim uArch: Shader 17 bind to kernel 1 '_Z16initializeArraysPbPfS0_ii'
Destroy streams for kernel 1: size 0
kernel_name = _Z16initializeArraysPbPfS0_ii 
kernel_launch_uid = 1 
gpu_sim_cycle = 1111402
gpu_sim_insn = 27262977
gpu_ipc =      24.5303
gpu_tot_sim_cycle = 1333552
gpu_tot_sim_insn = 27262977
gpu_tot_ipc =      20.4439
gpu_tot_issued_cta = 65536
max_total_param_size = 0
gpu_stall_dramfull = 343311
gpu_stall_icnt2sh    = 453
partiton_reqs_in_parallel = 24107533
partiton_reqs_in_parallel_total    = 0
partiton_level_parallism =      21.6911
partiton_level_parallism_total  =      18.0777
partiton_reqs_in_parallel_util = 24107533
partiton_reqs_in_parallel_util_total    = 0
gpu_sim_cycle_parition_util = 1110683
gpu_tot_sim_cycle_parition_util    = 0
partiton_level_parallism_util =      21.7051
partiton_level_parallism_util_total  =      21.7051
partiton_replys_in_parallel = 196723
partiton_replys_in_parallel_total    = 0
L2_BW  =      16.7772 GB/Sec
L2_BW_total  =      13.9824 GB/Sec
gpu_total_sim_rate=26520

========= Core cache stats =========
L1I_cache:
	L1I_total_cache_accesses = 983046
	L1I_total_cache_misses = 2688
	L1I_total_cache_miss_rate = 0.0027
	L1I_total_cache_pending_hits = 0
	L1I_total_cache_reservation_fails = 0
L1D_cache:
	L1D_cache_core[0]: Access = 0, Miss = 0, Miss_rate = -nan, Pending_hits = 0, Reservation_fails = 0
	L1D_cache_core[1]: Access = 0, Miss = 0, Miss_rate = -nan, Pending_hits = 0, Reservation_fails = 0
	L1D_cache_core[2]: Access = 0, Miss = 0, Miss_rate = -nan, Pending_hits = 0, Reservation_fails = 0
	L1D_cache_core[3]: Access = 0, Miss = 0, Miss_rate = -nan, Pending_hits = 0, Reservation_fails = 0
	L1D_cache_core[4]: Access = 0, Miss = 0, Miss_rate = -nan, Pending_hits = 0, Reservation_fails = 0
	L1D_cache_core[5]: Access = 0, Miss = 0, Miss_rate = -nan, Pending_hits = 0, Reservation_fails = 0
	L1D_cache_core[6]: Access = 0, Miss = 0, Miss_rate = -nan, Pending_hits = 0, Reservation_fails = 0
	L1D_cache_core[7]: Access = 0, Miss = 0, Miss_rate = -nan, Pending_hits = 0, Reservation_fails = 0
	L1D_cache_core[8]: Access = 0, Miss = 0, Miss_rate = -nan, Pending_hits = 0, Reservation_fails = 0
	L1D_cache_core[9]: Access = 0, Miss = 0, Miss_rate = -nan, Pending_hits = 0, Reservation_fails = 0
	L1D_cache_core[10]: Access = 0, Miss = 0, Miss_rate = -nan, Pending_hits = 0, Reservation_fails = 0
	L1D_cache_core[11]: Access = 0, Miss = 0, Miss_rate = -nan, Pending_hits = 0, Reservation_fails = 0
	L1D_cache_core[12]: Access = 0, Miss = 0, Miss_rate = -nan, Pending_hits = 0, Reservation_fails = 0
	L1D_cache_core[13]: Access = 0, Miss = 0, Miss_rate = -nan, Pending_hits = 0, Reservation_fails = 0
	L1D_cache_core[14]: Access = 0, Miss = 0, Miss_rate = -nan, Pending_hits = 0, Reservation_fails = 0
	L1D_cache_core[15]: Access = 0, Miss = 0, Miss_rate = -nan, Pending_hits = 0, Reservation_fails = 0
	L1D_cache_core[16]: Access = 0, Miss = 0, Miss_rate = -nan, Pending_hits = 0, Reservation_fails = 0
	L1D_cache_core[17]: Access = 0, Miss = 0, Miss_rate = -nan, Pending_hits = 0, Reservation_fails = 0
	L1D_cache_core[18]: Access = 0, Miss = 0, Miss_rate = -nan, Pending_hits = 0, Reservation_fails = 0
	L1D_cache_core[19]: Access = 0, Miss = 0, Miss_rate = -nan, Pending_hits = 0, Reservation_fails = 0
	L1D_cache_core[20]: Access = 0, Miss = 0, Miss_rate = -nan, Pending_hits = 0, Reservation_fails = 0
	L1D_cache_core[21]: Access = 0, Miss = 0, Miss_rate = -nan, Pending_hits = 0, Reservation_fails = 0
	L1D_cache_core[22]: Access = 0, Miss = 0, Miss_rate = -nan, Pending_hits = 0, Reservation_fails = 0
	L1D_cache_core[23]: Access = 0, Miss = 0, Miss_rate = -nan, Pending_hits = 0, Reservation_fails = 0
	L1D_cache_core[24]: Access = 0, Miss = 0, Miss_rate = -nan, Pending_hits = 0, Reservation_fails = 0
	L1D_cache_core[25]: Access = 0, Miss = 0, Miss_rate = -nan, Pending_hits = 0, Reservation_fails = 0
	L1D_cache_core[26]: Access = 0, Miss = 0, Miss_rate = -nan, Pending_hits = 0, Reservation_fails = 0
	L1D_cache_core[27]: Access = 0, Miss = 0, Miss_rate = -nan, Pending_hits = 0, Reservation_fails = 0
	L1D_total_cache_accesses = 0
	L1D_total_cache_misses = 0
	L1D_total_cache_pending_hits = 0
	L1D_total_cache_reservation_fails = 0
	L1D_cache_data_port_util = 0.000
	L1D_cache_fill_port_util = 0.000
L1C_cache:
	L1C_total_cache_accesses = 327680
	L1C_total_cache_misses = 1792
	L1C_total_cache_miss_rate = 0.0055
	L1C_total_cache_pending_hits = 0
	L1C_total_cache_reservation_fails = 4886
L1T_cache:
	L1T_total_cache_accesses = 0
	L1T_total_cache_misses = 0
	L1T_total_cache_pending_hits = 0
	L1T_total_cache_reservation_fails = 0

Total_core_cache_stats:
	Total_core_cache_stats_breakdown[GLOBAL_ACC_R][HIT] = 0
	Total_core_cache_stats_breakdown[GLOBAL_ACC_R][HIT_RESERVED] = 0
	Total_core_cache_stats_breakdown[GLOBAL_ACC_R][MISS] = 0
	Total_core_cache_stats_breakdown[GLOBAL_ACC_R][RESERVATION_FAIL] = 0
	Total_core_cache_stats_breakdown[LOCAL_ACC_R][HIT] = 0
	Total_core_cache_stats_breakdown[LOCAL_ACC_R][HIT_RESERVED] = 0
	Total_core_cache_stats_breakdown[LOCAL_ACC_R][MISS] = 0
	Total_core_cache_stats_breakdown[LOCAL_ACC_R][RESERVATION_FAIL] = 0
	Total_core_cache_stats_breakdown[CONST_ACC_R][HIT] = 325888
	Total_core_cache_stats_breakdown[CONST_ACC_R][HIT_RESERVED] = 0
	Total_core_cache_stats_breakdown[CONST_ACC_R][MISS] = 1792
	Total_core_cache_stats_breakdown[CONST_ACC_R][RESERVATION_FAIL] = 4886
	Total_core_cache_stats_breakdown[TEXTURE_ACC_R][HIT] = 0
	Total_core_cache_stats_breakdown[TEXTURE_ACC_R][HIT_RESERVED] = 0
	Total_core_cache_stats_breakdown[TEXTURE_ACC_R][MISS] = 0
	Total_core_cache_stats_breakdown[TEXTURE_ACC_R][RESERVATION_FAIL] = 0
	Total_core_cache_stats_breakdown[GLOBAL_ACC_W][HIT] = 0
	Total_core_cache_stats_breakdown[GLOBAL_ACC_W][HIT_RESERVED] = 0
	Total_core_cache_stats_breakdown[GLOBAL_ACC_W][MISS] = 0
	Total_core_cache_stats_breakdown[GLOBAL_ACC_W][RESERVATION_FAIL] = 0
	Total_core_cache_stats_breakdown[LOCAL_ACC_W][HIT] = 0
	Total_core_cache_stats_breakdown[LOCAL_ACC_W][HIT_RESERVED] = 0
	Total_core_cache_stats_breakdown[LOCAL_ACC_W][MISS] = 0
	Total_core_cache_stats_breakdown[LOCAL_ACC_W][RESERVATION_FAIL] = 0
	Total_core_cache_stats_breakdown[L1_WRBK_ACC][HIT] = 0
	Total_core_cache_stats_breakdown[L1_WRBK_ACC][HIT_RESERVED] = 0
	Total_core_cache_stats_breakdown[L1_WRBK_ACC][MISS] = 0
	Total_core_cache_stats_breakdown[L1_WRBK_ACC][RESERVATION_FAIL] = 0
	Total_core_cache_stats_breakdown[L2_WRBK_ACC][HIT] = 0
	Total_core_cache_stats_breakdown[L2_WRBK_ACC][HIT_RESERVED] = 0
	Total_core_cache_stats_breakdown[L2_WRBK_ACC][MISS] = 0
	Total_core_cache_stats_breakdown[L2_WRBK_ACC][RESERVATION_FAIL] = 0
	Total_core_cache_stats_breakdown[INST_ACC_R][HIT] = 980358
	Total_core_cache_stats_breakdown[INST_ACC_R][HIT_RESERVED] = 0
	Total_core_cache_stats_breakdown[INST_ACC_R][MISS] = 2688
	Total_core_cache_stats_breakdown[INST_ACC_R][RESERVATION_FAIL] = 0
	Total_core_cache_stats_breakdown[L1_WR_ALLOC_R][HIT] = 0
	Total_core_cache_stats_breakdown[L1_WR_ALLOC_R][HIT_RESERVED] = 0
	Total_core_cache_stats_breakdown[L1_WR_ALLOC_R][MISS] = 0
	Total_core_cache_stats_breakdown[L1_WR_ALLOC_R][RESERVATION_FAIL] = 0
	Total_core_cache_stats_breakdown[L2_WR_ALLOC_R][HIT] = 0
	Total_core_cache_stats_breakdown[L2_WR_ALLOC_R][HIT_RESERVED] = 0
	Total_core_cache_stats_breakdown[L2_WR_ALLOC_R][MISS] = 0
	Total_core_cache_stats_breakdown[L2_WR_ALLOC_R][RESERVATION_FAIL] = 0
	Total_core_cache_stats_breakdown[CONST_ACC_R][TOTAL_ACCESS] = 327680
	Total_core_cache_stats_breakdown[INST_ACC_R][TOTAL_ACCESS] = 983046
Shader 0 warp_id issue ditsribution:
warp_id:
0, 1, 2, 3, 4, 5, 6, 7, 8, 9, 10, 11, 12, 13, 14, 15, 16, 17, 18, 19, 20, 21, 22, 23, 24, 25, 26, 27, 28, 29, 30, 31, 
distro:
2520, 2392, 2358, 2358, 2423, 2392, 2488, 2361, 2421, 2355, 2393, 2328, 2425, 2300, 2361, 2262, 2456, 2267, 2325, 2229, 2361, 2327, 2325, 2234, 2263, 2267, 2359, 2235, 2357, 2201, 2326, 2167, 
gpgpu_n_tot_thrd_icount = 58720544
gpgpu_n_tot_w_icount = 1835017
gpgpu_n_stall_shd_mem = 433566
gpgpu_n_mem_read_local = 0
gpgpu_n_mem_write_local = 0
gpgpu_n_mem_read_global = 0
gpgpu_n_mem_write_global = 196611
gpgpu_n_mem_texture = 0
gpgpu_n_mem_const = 28
gpgpu_n_load_insn  = 0
gpgpu_n_store_insn = 3145728
gpgpu_n_shmem_insn = 0
gpgpu_n_tex_insn = 0
gpgpu_n_const_mem_insn = 0
gpgpu_n_param_mem_insn = 5242880
gpgpu_n_shmem_bkconflict = 0
gpgpu_n_cache_bkconflict = 0
gpgpu_n_intrawarp_mshr_merge = 0
gpgpu_n_cmem_portconflict = 4886
gpgpu_stall_shd_mem[c_mem][bk_conf] = 4886
gpgpu_stall_shd_mem[c_mem][mshr_rc] = 0
gpgpu_stall_shd_mem[c_mem][icnt_rc] = 0
gpgpu_stall_shd_mem[c_mem][data_port_stall] = 0
gpgpu_stall_shd_mem[t_mem][mshr_rc] = 0
gpgpu_stall_shd_mem[t_mem][icnt_rc] = 0
gpgpu_stall_shd_mem[t_mem][data_port_stall] = 0
gpgpu_stall_shd_mem[s_mem][bk_conf] = 0
gpgpu_stall_shd_mem[gl_mem][bk_conf] = 0
gpgpu_stall_shd_mem[gl_mem][coal_stall] = 196588
gpgpu_stall_shd_mem[gl_mem][data_port_stall] = 0
gpgpu_stall_shd_mem[g_mem_ld][mshr_rc] = 0
gpgpu_stall_shd_mem[g_mem_ld][icnt_rc] = 232092
gpgpu_stall_shd_mem[g_mem_ld][wb_icnt_rc] = 0
gpgpu_stall_shd_mem[g_mem_ld][wb_rsrv_fail] = 0
gpgpu_stall_shd_mem[g_mem_st][mshr_rc] = 0
gpgpu_stall_shd_mem[g_mem_st][icnt_rc] = 0
gpgpu_stall_shd_mem[g_mem_st][wb_icnt_rc] = 0
gpgpu_stall_shd_mem[g_mem_st][wb_rsrv_fail] = 0
gpgpu_stall_shd_mem[l_mem_ld][mshr_rc] = 0
gpgpu_stall_shd_mem[l_mem_ld][icnt_rc] = 0
gpgpu_stall_shd_mem[l_mem_ld][wb_icnt_rc] = 0
gpgpu_stall_shd_mem[l_mem_ld][wb_rsrv_fail] = 0
gpgpu_stall_shd_mem[l_mem_st][mshr_rc] = 0
gpgpu_stall_shd_mem[l_mem_st][icnt_rc] = 0
gpgpu_stall_shd_mem[l_mem_ld][wb_icnt_rc] = 0
gpgpu_stall_shd_mem[l_mem_ld][wb_rsrv_fail] = 0
gpu_reg_bank_conflict_stalls = 0
Warp Occupancy Distribution:
Stall:223324	W0_Idle:59214129	W0_Scoreboard:1217177	W1:9	W2:0	W3:0	W4:0	W5:0	W6:0	W7:0	W8:0	W9:0	W10:0	W11:0	W12:0	W13:0	W14:0	W15:9	W16:1834999	W17:0	W18:0	W19:0	W20:0	W21:0	W22:0	W23:0	W24:0	W25:0	W26:0	W27:0	W28:0	W29:0	W30:0	W31:0	W32:0
traffic_breakdown_coretomem[CONST_ACC_R] = 224 {8:28,}
traffic_breakdown_coretomem[GLOBAL_ACC_W] = 12058744 {40:65539,72:131072,}
traffic_breakdown_coretomem[INST_ACC_R] = 672 {8:84,}
traffic_breakdown_memtocore[CONST_ACC_R] = 2016 {72:28,}
traffic_breakdown_memtocore[GLOBAL_ACC_W] = 1572888 {8:196611,}
traffic_breakdown_memtocore[INST_ACC_R] = 11424 {136:84,}
maxmrqlatency = 1300 
maxdqlatency = 0 
maxmflatency = 247711 
averagemflatency = 2075 
max_icnt2mem_latency = 247419 
max_icnt2sh_latency = 1333551 
mrq_lat_table:20695 	2424 	3686 	9232 	16037 	27939 	41569 	71776 	68074 	7947 	85 	0 	0 	0 	0 	0 	0 	0 	0 	0 	0 	0 	0 	0 	0 	0 	0 	0 	0 	0 	0 	0 	
dq_lat_table:0 	0 	0 	0 	0 	0 	0 	0 	0 	0 	0 	0 	0 	0 	0 	0 	0 	0 	0 	0 	0 	0 	0 	0 	0 	0 	0 	0 	0 	0 	0 	0 	
mf_lat_table:0 	0 	0 	0 	0 	0 	0 	4861 	42815 	130898 	11479 	768 	0 	1754 	1796 	903 	1112 	253 	0 	0 	0 	0 	0 	0 	0 	0 	0 	0 	0 	0 	0 	0 	
icnt2mem_lat_table:0 	0 	35313 	8886 	7605 	4853 	74643 	42239 	16109 	489 	0 	768 	0 	1754 	1796 	903 	1112 	253 	0 	0 	0 	0 	0 	0 	
icnt2sh_lat_table:0 	0 	3 	25 	0 	0 	0 	0 	0 	0 	0 	0 	0 	0 	0 	0 	0 	3841 	45539 	73891 	73340 	0 	0 	0 	
mf_lat_pw_table:0 	0 	0 	0 	0 	0 	0 	1 	10 	137 	0 	16 	1 	15 	5 	11 	7 	2 	0 	0 	0 	0 	0 	0 	0 	0 	0 	0 	0 	0 	0 	0 	
maximum concurrent accesses to same row:
dram[0]:       114       114        91       101        92        96        80        89        94       100       144       144        63        63        64       105 
dram[1]:       116       115        62        91       117       135        80        81        79       100       144       144        63        99       102        90 
dram[2]:       117       115        62        94        99        90        80        75        93        96       144       144        63        63        69       108 
dram[3]:       115       116        76       100       126       126        80        75        88        91       144       144        63        98        92       100 
dram[4]:       114       114        63        60       133        94        81        80        93        96       144       144        98        63        64       102 
dram[5]:       108       107        63       100       135        90        76        81        87        96       144       144        97        63        69        91 
dram[6]:       106       105       102        63       129       103        81        80        90        93       144       144        63        63        60        73 
dram[7]:       108       108       101        62       101        94        77        77        91        92       144       144       100        63        96       108 
dram[8]:       107       107       105        58        99       104        72        86        82        89       144       143        73        90        63        92 
dram[9]:       117       107        70       101       101       102        72        72        88        96       144       144        72        72        65        64 
dram[10]:       102       115       100        99       100       100        70        72        89        93       144       144        72        72        65        95 
maximum service time to same row:
dram[0]:    250919    250892    251008    250801    250842    251215    251029    250851    249288    249272    249254    249239    250971    249306    251226    251110 
dram[1]:    250893    250996    250914    250922    251216    251243    250982    251095    249274    249303    249328    249306    250951    250927    251129    251170 
dram[2]:    250928    251120    251065    250972    251091    251163    250990    251002    249086    249224    249226    249320    249392    250889    251148    251162 
dram[3]:    250997    251090    250891    250980    251061    251131    250955    250998    249175    249250    249378    249319    250396    249348    251119    251160 
dram[4]:    251014    250920    250930    250839    250896    250937    250950    250984    249240    249241    249235    249268    249337    250919    251171    251140 
dram[5]:    251069    250944    250970    250958    250948    250945    250996    250958    249242    249261    249328    249355    249731    250853    251172    251139 
dram[6]:    251050    251083    250941    251083    251135    250893    250879    250920    249273    249265    249216    249332    250506    249762    251012    251180 
dram[7]:    250967    251060    251038    251004    250841    251178    251005    250915    249205    248392    249320    249343    249434    249770    251118    251163 
dram[8]:    250933    251031    251042    251035    250977    251152    251055    250941    249234    249291    249377    249416    249358    250853    251115    251148 
dram[9]:    251112    250827    250992    250729    251150    250913    250950    250884    249200    249214    249369    249256    249400    249699    251119    250973 
dram[10]:    250946    250991    251030    251003    250935    250929    250980    250943    249260    249304    249311    249323    250841    249677    251104    251079 
average row accesses per activate:
dram[0]: 47.848484 40.410255 30.529411 33.847828 38.174999 40.131580 37.365852 34.022221 38.250000 40.394737 52.275864 52.103447 42.764706 40.333332 35.659092 39.150002 
dram[1]: 44.885715 46.470589 31.755102 36.255814 40.342106 41.432434 35.511627 33.955555 36.452381 38.349998 50.233334 50.166668 42.794117 50.068966 37.261906 35.568180 
dram[2]: 42.621620 40.179485 31.795918 33.847828 38.275002 38.099998 34.066666 36.380951 39.384617 39.256409 45.636364 47.093750 40.416668 41.514286 34.666668 37.309525 
dram[3]: 42.675674 36.627907 31.755102 34.488888 40.210526 41.270271 34.772728 36.428570 39.230770 40.315788 53.571430 50.200001 40.388889 41.485714 38.170731 35.590908 
dram[4]: 46.441177 43.694443 34.511112 31.755102 38.349998 37.365852 38.150002 32.595745 43.799999 40.368420 48.354839 53.678570 41.457142 42.794117 35.727272 33.446808 
dram[5]: 39.325001 39.400002 28.685184 32.416668 41.324326 35.604652 31.265306 34.840908 41.378380 40.289474 50.166668 47.062500 42.735294 41.428570 36.511627 35.636364 
dram[6]: 40.256409 38.512196 29.903847 33.695652 40.157894 38.200001 33.108696 35.674419 42.611111 41.297298 48.451614 53.642857 40.277779 40.333332 35.681820 35.681820 
dram[7]: 41.578949 41.526318 34.599998 33.021278 39.051281 41.351353 31.812500 31.204082 40.263157 40.342106 51.758621 45.606060 45.406250 38.289474 37.380951 34.844444 
dram[8]: 40.487179 36.627907 36.162792 33.782608 38.075001 42.555557 28.203703 36.261906 41.162163 41.351353 53.321430 49.799999 39.594593 38.447369 36.534885 37.285713 
dram[9]: 41.605263 41.421051 29.339622 33.804348 39.256409 41.459461 33.326088 31.163265 42.666668 41.513512 53.571430 50.000000 39.567566 37.512821 37.404762 33.340427 
dram[10]: 36.534885 46.558823 34.599998 35.295456 40.184212 37.317074 32.510639 31.224489 38.325001 38.299999 50.200001 50.133335 41.771427 43.029411 35.681820 38.292683 
average row locality = 269464/6960 = 38.716091
number of total memory accesses made:
dram[0]:         0         0         0         0         0         0         0         0         0         0         0         0         0         0         0         0 
dram[1]:         0         0         0         0         0         0         0         0         0         0         0         0         0         0         0         0 
dram[2]:         0         0         0         0         0         0         0         0         0         0         0         0         0         0         0         0 
dram[3]:         0         0         0         0         0         0         0         0         0         0         0         0         0         0         0         0 
dram[4]:         0         0         0         0         0         0         0         0         0         0         0         0         0         0         0         0 
dram[5]:         0         0         0         0         0         0         0         0         0         0         0         0         0         0         0         0 
dram[6]:         0         0         0         0         0         0         0         0         0         0         0         0         0         0         0         0 
dram[7]:         0         0         0         0         0         0         0         0         0         0         0         0         0         0         0         0 
dram[8]:         0         0         0         0         0         0         0         0         0         0         0         0         0         0         0         0 
dram[9]:         0         0         0         0         0         0         0         0         0         0         0         0         0         0         0         0 
dram[10]:         0         0         0         0         0         0         0         0         0         0         0         0         0         0         0         0 
total accesses: 0
min_bank_accesses = 0!
min_chip_accesses = 0!
number of total read accesses:
dram[0]:       433       432       424       424       416       416       416       416       416       416       414       414       407       407       427       427 
dram[1]:       432       432       424       424       416       416       416       416       416       416       413       413       407       407       427       427 
dram[2]:       432       432       424       424       416       416       416       416       416       416       413       413       407       407       427       427 
dram[3]:       432       432       423       423       416       416       416       416       416       416       413       413       407       407       427       427 
dram[4]:       432       432       423       423       416       416       416       416       416       416       413       413       407       407       429       429 
dram[5]:       432       432       423       423       416       416       416       416       416       416       413       413       407       407       429       428 
dram[6]:       432       432       423       423       416       416       416       416       416       416       413       413       407       407       428       428 
dram[7]:       432       432       423       423       416       416       416       416       416       416       413       413       407       407       428       428 
dram[8]:       432       432       423       423       416       416       416       416       416       416       413       413       408       408       428       428 
dram[9]:       432       432       423       423       416       416       416       416       416       416       413       413       408       408       428       428 
dram[10]:       432       432       423       423       416       416       416       416       416       416       413       413       408       408       428       428 
total reads: 73732
bank skew: 433/407 = 1.06
chip skew: 6705/6700 = 1.00
number of total write accesses:
dram[0]:      1146      1144      1133      1133      1111      1109      1116      1115      1114      1119      1102      1097      1047      1045      1142      1139 
dram[1]:      1139      1148      1132      1135      1117      1117      1111      1112      1115      1118      1094      1092      1048      1045      1138      1138 
dram[2]:      1145      1135      1134      1133      1115      1108      1117      1112      1120      1115      1093      1094      1048      1046      1133      1140 
dram[3]:      1147      1143      1133      1129      1112      1111      1114      1114      1114      1116      1087      1093      1047      1045      1138      1139 
dram[4]:      1147      1141      1130      1133      1118      1116      1110      1116      1117      1118      1086      1090      1044      1048      1143      1143 
dram[5]:      1141      1144      1126      1133      1113      1115      1116      1117      1115      1115      1092      1093      1046      1043      1141      1140 
dram[6]:      1138      1147      1132      1127      1110      1112      1107      1118      1118      1112      1089      1089      1043      1045      1142      1142 
dram[7]:      1148      1146      1134      1129      1107      1114      1111      1113      1114      1117      1088      1092      1046      1048      1142      1140 
dram[8]:      1147      1143      1132      1131      1107      1116      1107      1107      1107      1114      1080      1081      1057      1053      1143      1138 
dram[9]:      1149      1142      1132      1132      1115      1118      1117      1111      1120      1120      1087      1087      1056      1055      1143      1139 
dram[10]:      1139      1151      1134      1130      1111      1114      1112      1114      1117      1116      1093      1091      1054      1055      1142      1142 
total reads: 195732
bank skew: 1151/1043 = 1.10
chip skew: 17823/17763 = 1.00
average mf latency per bank:
dram[0]:       1720      1728       739       757      2426      2440      1963      1991       880       898      1750      1751      1611      1619       868       886
dram[1]:       1774      1776       751       758      2432      2400      1981      1985       892       866      1812      1809      1596      1599       881       885
dram[2]:       1764      1781       742       745      2342      2353      2136      2142       863       866      1767      1777      1831      1842       881       876
dram[3]:       1767      1771       738       771      2321      2318      2143      2053       888       886      1784      1785      1823      1830       884       882
dram[4]:       1774      1767       763       750      2541      2534      2067      2062       891       872      1794      1771      1747      1486       919       903
dram[5]:       1768      1769       746       753      2544      2533      2056      2058       883       888      1616      1613      1489      1489       905       924
dram[6]:       1761      1759       747       750      2564      2554      2066      2055       877       876      1606      1613      1480      1481       910       900
dram[7]:       1811      1811       745       744      2571      2554      2266      2259       886       873      1625      1582      1480      1492       912       896
dram[8]:       1786      1624       803       802      2551      2538      2208      2219       863       860      1569      1559      1556      1555       834       833
dram[9]:       1633      1639       799       819      2546      2552      2066      1920       913       914      1574      1567      1569      1561       889       881
dram[10]:       1635      1627       805       724      2444      2440      1906      1909       905       897      1763      1768      1556      1560       878       884
maximum mf latency per bank:
dram[0]:     127177    127184     63711     63730    247678    247651    247680    247633     22051     22050    124032    124017    127110    127111     36947     36930
dram[1]:     127158    127202     63722     63702    247658    247650    247618    247591     22102     22042    124031    123994    127103    127120     36915     36898
dram[2]:     127171    127210     63703     63731    247672    247652    247626    247677     22004     22003    123970    124023    127174    127187     36911     36944
dram[3]:     127194    127167     63719     63697    247681    247680    247587    247607     22021     22107    123984    124021    127175    127163     36925     36930
dram[4]:     127164    127173     63690     63721    247683    247711    247602    247612     22097     22091    123999    123980    127151    127166     36924     36903
dram[5]:     127192    127188     63704     63689    247698    247671    247600    247592     22081     22077    123996    123955    127140    127157     36882     36902
dram[6]:     127193    127220     63682     63684    247686    247674    247577    247600     22076     22049    124005    123948    127155    127132     36918     36944
dram[7]:     127188    127197     63675     63692    247652    247702    247625    247587     22038     22059    123978    123968    127122    127158     36927     36897
dram[8]:     127214    127203     63731     63761    247671    247695    247610    247660     22102     22049    123990    123952    127144    127151     36894     36892
dram[9]:     127192    127179     63738     63735    247678    247689    247650    247656     22065     22063    124002    124003    127123    127149     36925     36926
dram[10]:     127188    127181     63724     63736    247676    247632    247636    247628     22056     22141    124004    124031    127133    127116     36926     36927
Memory Partition 0: 
Cache L2_bank_000:
MSHR contents

Cache L2_bank_001:
MSHR contents

In Dram Latency Queue (total = 0): 
DRAM[0]: 16 bks, busW=4 BL=8 CL=12, tRRD=2 tCCD=6, tRCD=12 tRAS=28 tRP=12 tRC=40
n_cmd=2063709 n_nop=2005745 n_act=624 n_pre=608 n_req=24517 n_rd=26820 n_write=29912 bw_util=0.05498
n_activity=140156 dram_eff=0.8096
bk0: 1732a 2008861i bk1: 1728a 2007917i bk2: 1696a 2010549i bk3: 1696a 2010195i bk4: 1664a 2011077i bk5: 1664a 2011287i bk6: 1664a 2010202i bk7: 1664a 2009814i bk8: 1664a 2011186i bk9: 1664a 2010295i bk10: 1656a 2010267i bk11: 1656a 2010522i bk12: 1628a 2012678i bk13: 1628a 2012121i bk14: 1708a 2009187i bk15: 1708a 2009450i 
dram_util_bins: 0 0 0 0 0 0 0 0 0 0
dram_eff_bins: 0 0 0 0 0 0 0 0 0 0
mrqq: max=64 avg=3.9253
Memory Partition 1: 
Cache L2_bank_002:
MSHR contents

Cache L2_bank_003:
MSHR contents

In Dram Latency Queue (total = 0): 
DRAM[1]: 16 bks, busW=4 BL=8 CL=12, tRRD=2 tCCD=6, tRCD=12 tRAS=28 tRP=12 tRC=40
n_cmd=2063709 n_nop=2005842 n_act=615 n_pre=599 n_req=24501 n_rd=26808 n_write=29845 bw_util=0.0549
n_activity=139932 dram_eff=0.8097
bk0: 1728a 2009152i bk1: 1728a 2007848i bk2: 1696a 2010773i bk3: 1696a 2010181i bk4: 1664a 2011416i bk5: 1664a 2010732i bk6: 1664a 2009819i bk7: 1664a 2009537i bk8: 1664a 2012005i bk9: 1664a 2010805i bk10: 1652a 2011448i bk11: 1652a 2010977i bk12: 1628a 2012478i bk13: 1628a 2012401i bk14: 1708a 2009469i bk15: 1708a 2008446i 
dram_util_bins: 0 0 0 0 0 0 0 0 0 0
dram_eff_bins: 0 0 0 0 0 0 0 0 0 0
mrqq: max=64 avg=3.92203
Memory Partition 2: 
Cache L2_bank_004:
MSHR contents

Cache L2_bank_005:
MSHR contents

In Dram Latency Queue (total = 0): 
DRAM[2]: 16 bks, busW=4 BL=8 CL=12, tRRD=2 tCCD=6, tRCD=12 tRAS=28 tRP=12 tRC=40
n_cmd=2063709 n_nop=2005749 n_act=639 n_pre=623 n_req=24490 n_rd=26808 n_write=29890 bw_util=0.05495
n_activity=139918 dram_eff=0.8104
bk0: 1728a 2007647i bk1: 1728a 2007420i bk2: 1696a 2010189i bk3: 1696a 2010053i bk4: 1664a 2011092i bk5: 1664a 2010749i bk6: 1664a 2009982i bk7: 1664a 2009614i bk8: 1664a 2010465i bk9: 1664a 2010815i bk10: 1652a 2011510i bk11: 1652a 2010961i bk12: 1628a 2013106i bk13: 1628a 2012378i bk14: 1708a 2009422i bk15: 1708a 2009151i 
dram_util_bins: 0 0 0 0 0 0 0 0 0 0
dram_eff_bins: 0 0 0 0 0 0 0 0 0 0
mrqq: max=64 avg=3.91147
Memory Partition 3: 
Cache L2_bank_006:
MSHR contents

Cache L2_bank_007:
MSHR contents

In Dram Latency Queue (total = 0): 
DRAM[3]: 16 bks, busW=4 BL=8 CL=12, tRRD=2 tCCD=6, tRCD=12 tRAS=28 tRP=12 tRC=40
n_cmd=2063709 n_nop=2005817 n_act=626 n_pre=610 n_req=24482 n_rd=26800 n_write=29856 bw_util=0.05491
n_activity=139937 dram_eff=0.8097
bk0: 1728a 2008271i bk1: 1728a 2007966i bk2: 1692a 2010772i bk3: 1692a 2010370i bk4: 1664a 2011376i bk5: 1664a 2011007i bk6: 1664a 2009817i bk7: 1664a 2009992i bk8: 1664a 2011837i bk9: 1664a 2011010i bk10: 1652a 2010476i bk11: 1652a 2010268i bk12: 1628a 2012886i bk13: 1628a 2012139i bk14: 1708a 2009081i bk15: 1708a 2008264i 
dram_util_bins: 0 0 0 0 0 0 0 0 0 0
dram_eff_bins: 0 0 0 0 0 0 0 0 0 0
mrqq: max=64 avg=3.92107
Memory Partition 4: 
Cache L2_bank_008:
MSHR contents

Cache L2_bank_009:
MSHR contents

In Dram Latency Queue (total = 0): 
DRAM[4]: 16 bks, busW=4 BL=8 CL=12, tRRD=2 tCCD=6, tRCD=12 tRAS=28 tRP=12 tRC=40
n_cmd=2063709 n_nop=2005753 n_act=624 n_pre=608 n_req=24504 n_rd=26816 n_write=29908 bw_util=0.05497
n_activity=140150 dram_eff=0.8095
bk0: 1728a 2008360i bk1: 1728a 2008552i bk2: 1692a 2010664i bk3: 1692a 2010020i bk4: 1664a 2012204i bk5: 1664a 2010576i bk6: 1664a 2010184i bk7: 1664a 2008970i bk8: 1664a 2011582i bk9: 1664a 2010840i bk10: 1652a 2010484i bk11: 1652a 2010889i bk12: 1628a 2012985i bk13: 1628a 2012188i bk14: 1716a 2009241i bk15: 1716a 2008464i 
dram_util_bins: 0 0 0 0 0 0 0 0 0 0
dram_eff_bins: 0 0 0 0 0 0 0 0 0 0
mrqq: max=64 avg=3.9244
Memory Partition 5: 
Cache L2_bank_010:
MSHR contents

Cache L2_bank_011:
MSHR contents

In Dram Latency Queue (total = 0): 
DRAM[5]: 16 bks, busW=4 BL=8 CL=12, tRRD=2 tCCD=6, tRCD=12 tRAS=28 tRP=12 tRC=40
n_cmd=2063709 n_nop=2005735 n_act=648 n_pre=632 n_req=24493 n_rd=26812 n_write=29882 bw_util=0.05494
n_activity=140002 dram_eff=0.8099
bk0: 1728a 2007892i bk1: 1728a 2007270i bk2: 1692a 2010642i bk3: 1692a 2010021i bk4: 1664a 2011306i bk5: 1664a 2010513i bk6: 1664a 2009714i bk7: 1664a 2009193i bk8: 1664a 2011231i bk9: 1664a 2010350i bk10: 1652a 2011464i bk11: 1652a 2010433i bk12: 1628a 2012026i bk13: 1628a 2011595i bk14: 1716a 2008909i bk15: 1712a 2008566i 
dram_util_bins: 0 0 0 0 0 0 0 0 0 0
dram_eff_bins: 0 0 0 0 0 0 0 0 0 0
mrqq: max=64 avg=3.91912
Memory Partition 6: 
Cache L2_bank_012:
MSHR contents

Cache L2_bank_013:
MSHR contents

In Dram Latency Queue (total = 0): 
DRAM[6]: 16 bks, busW=4 BL=8 CL=12, tRRD=2 tCCD=6, tRCD=12 tRAS=28 tRP=12 tRC=40
n_cmd=2063709 n_nop=2005786 n_act=637 n_pre=621 n_req=24473 n_rd=26808 n_write=29857 bw_util=0.05492
n_activity=139673 dram_eff=0.8114
bk0: 1728a 2008291i bk1: 1728a 2007187i bk2: 1692a 2009737i bk3: 1692a 2010365i bk4: 1664a 2011450i bk5: 1664a 2010619i bk6: 1664a 2009942i bk7: 1664a 2009202i bk8: 1664a 2010809i bk9: 1664a 2010350i bk10: 1652a 2010921i bk11: 1652a 2011122i bk12: 1628a 2012321i bk13: 1628a 2011491i bk14: 1712a 2008804i bk15: 1712a 2008724i 
dram_util_bins: 0 0 0 0 0 0 0 0 0 0
dram_eff_bins: 0 0 0 0 0 0 0 0 0 0
mrqq: max=64 avg=3.91326
Memory Partition 7: 
Cache L2_bank_014:
MSHR contents

Cache L2_bank_015:
MSHR contents

In Dram Latency Queue (total = 0): 
DRAM[7]: 16 bks, busW=4 BL=8 CL=12, tRRD=2 tCCD=6, tRCD=12 tRAS=28 tRP=12 tRC=40
n_cmd=2063709 n_nop=2005730 n_act=636 n_pre=620 n_req=24491 n_rd=26808 n_write=29915 bw_util=0.05497
n_activity=139864 dram_eff=0.8111
bk0: 1728a 2007859i bk1: 1728a 2007538i bk2: 1692a 2010616i bk3: 1692a 2009344i bk4: 1664a 2011172i bk5: 1664a 2010913i bk6: 1664a 2008639i bk7: 1664a 2009587i bk8: 1664a 2010689i bk9: 1664a 2010150i bk10: 1652a 2010891i bk11: 1652a 2010257i bk12: 1628a 2012167i bk13: 1628a 2011367i bk14: 1712a 2009085i bk15: 1712a 2008271i 
dram_util_bins: 0 0 0 0 0 0 0 0 0 0
dram_eff_bins: 0 0 0 0 0 0 0 0 0 0
mrqq: max=64 avg=3.91993
Memory Partition 8: 
Cache L2_bank_016:
MSHR contents

Cache L2_bank_017:
MSHR contents

In Dram Latency Queue (total = 0): 
DRAM[8]: 16 bks, busW=4 BL=8 CL=12, tRRD=2 tCCD=6, tRCD=12 tRAS=28 tRP=12 tRC=40
n_cmd=2063709 n_nop=2005811 n_act=635 n_pre=619 n_req=24467 n_rd=26816 n_write=29828 bw_util=0.0549
n_activity=139385 dram_eff=0.8128
bk0: 1728a 2007545i bk1: 1728a 2007442i bk2: 1692a 2010865i bk3: 1692a 2009859i bk4: 1664a 2010888i bk5: 1664a 2010274i bk6: 1664a 2009912i bk7: 1664a 2009308i bk8: 1664a 2011096i bk9: 1664a 2010466i bk10: 1652a 2010024i bk11: 1652a 2010193i bk12: 1632a 2011545i bk13: 1632a 2011779i bk14: 1712a 2009479i bk15: 1712a 2008404i 
dram_util_bins: 0 0 0 0 0 0 0 0 0 0
dram_eff_bins: 0 0 0 0 0 0 0 0 0 0
mrqq: max=64 avg=3.89682
Memory Partition 9: 
Cache L2_bank_018:
MSHR contents

Cache L2_bank_019:
MSHR contents

In Dram Latency Queue (total = 0): 
DRAM[9]: 16 bks, busW=4 BL=8 CL=12, tRRD=2 tCCD=6, tRCD=12 tRAS=28 tRP=12 tRC=40
n_cmd=2063709 n_nop=2005696 n_act=642 n_pre=626 n_req=24527 n_rd=26816 n_write=29929 bw_util=0.05499
n_activity=139886 dram_eff=0.8113
bk0: 1728a 2007627i bk1: 1728a 2007261i bk2: 1692a 2009805i bk3: 1692a 2009874i bk4: 1664a 2011555i bk5: 1664a 2010836i bk6: 1664a 2009056i bk7: 1664a 2009090i bk8: 1664a 2010714i bk9: 1664a 2010042i bk10: 1652a 2010724i bk11: 1652a 2010514i bk12: 1632a 2011745i bk13: 1632a 2011542i bk14: 1712a 2009280i bk15: 1712a 2008843i 
dram_util_bins: 0 0 0 0 0 0 0 0 0 0
dram_eff_bins: 0 0 0 0 0 0 0 0 0 0
mrqq: max=64 avg=3.91095
Memory Partition 10: 
Cache L2_bank_020:
MSHR contents

Cache L2_bank_021:
MSHR contents

In Dram Latency Queue (total = 0): 
DRAM[10]: 16 bks, busW=4 BL=8 CL=12, tRRD=2 tCCD=6, tRCD=12 tRAS=28 tRP=12 tRC=40
n_cmd=2063709 n_nop=2005743 n_act=635 n_pre=619 n_req=24519 n_rd=26816 n_write=29896 bw_util=0.05496
n_activity=139576 dram_eff=0.8126
bk0: 1728a 2007962i bk1: 1728a 2008215i bk2: 1692a 2010721i bk3: 1692a 2010236i bk4: 1664a 2011758i bk5: 1664a 2011150i bk6: 1664a 2008819i bk7: 1664a 2008005i bk8: 1664a 2010639i bk9: 1664a 2010072i bk10: 1652a 2010376i bk11: 1652a 2009541i bk12: 1632a 2011864i bk13: 1632a 2011234i bk14: 1712a 2009354i bk15: 1712a 2008540i 
dram_util_bins: 0 0 0 0 0 0 0 0 0 0
dram_eff_bins: 0 0 0 0 0 0 0 0 0 0
mrqq: max=64 avg=3.90962

========= L2 cache stats =========
L2_cache_bank[0]: Access = 8970, Miss = 3353, Miss_rate = 0.374, Pending_hits = 5545, Reservation_fails = 136
L2_cache_bank[1]: Access = 8942, Miss = 3352, Miss_rate = 0.375, Pending_hits = 5502, Reservation_fails = 214
L2_cache_bank[2]: Access = 8934, Miss = 3351, Miss_rate = 0.375, Pending_hits = 5510, Reservation_fails = 190
L2_cache_bank[3]: Access = 8934, Miss = 3351, Miss_rate = 0.375, Pending_hits = 5521, Reservation_fails = 196
L2_cache_bank[4]: Access = 8934, Miss = 3351, Miss_rate = 0.375, Pending_hits = 5513, Reservation_fails = 164
L2_cache_bank[5]: Access = 8934, Miss = 3351, Miss_rate = 0.375, Pending_hits = 5489, Reservation_fails = 181
L2_cache_bank[6]: Access = 8932, Miss = 3350, Miss_rate = 0.375, Pending_hits = 5505, Reservation_fails = 190
L2_cache_bank[7]: Access = 8932, Miss = 3350, Miss_rate = 0.375, Pending_hits = 5500, Reservation_fails = 156
L2_cache_bank[8]: Access = 8963, Miss = 3352, Miss_rate = 0.374, Pending_hits = 5529, Reservation_fails = 211
L2_cache_bank[9]: Access = 8962, Miss = 3352, Miss_rate = 0.374, Pending_hits = 5537, Reservation_fails = 134
L2_cache_bank[10]: Access = 8962, Miss = 3352, Miss_rate = 0.374, Pending_hits = 5523, Reservation_fails = 176
L2_cache_bank[11]: Access = 8934, Miss = 3351, Miss_rate = 0.375, Pending_hits = 5508, Reservation_fails = 173
L2_cache_bank[12]: Access = 8934, Miss = 3351, Miss_rate = 0.375, Pending_hits = 5487, Reservation_fails = 189
L2_cache_bank[13]: Access = 8934, Miss = 3351, Miss_rate = 0.375, Pending_hits = 5499, Reservation_fails = 194
L2_cache_bank[14]: Access = 8934, Miss = 3351, Miss_rate = 0.375, Pending_hits = 5497, Reservation_fails = 227
L2_cache_bank[15]: Access = 8934, Miss = 3351, Miss_rate = 0.375, Pending_hits = 5494, Reservation_fails = 166
L2_cache_bank[16]: Access = 8943, Miss = 3352, Miss_rate = 0.375, Pending_hits = 5483, Reservation_fails = 153
L2_cache_bank[17]: Access = 8942, Miss = 3352, Miss_rate = 0.375, Pending_hits = 5495, Reservation_fails = 136
L2_cache_bank[18]: Access = 8943, Miss = 3352, Miss_rate = 0.375, Pending_hits = 5532, Reservation_fails = 144
L2_cache_bank[19]: Access = 8942, Miss = 3352, Miss_rate = 0.375, Pending_hits = 5502, Reservation_fails = 150
L2_cache_bank[20]: Access = 8942, Miss = 3352, Miss_rate = 0.375, Pending_hits = 5510, Reservation_fails = 160
L2_cache_bank[21]: Access = 8942, Miss = 3352, Miss_rate = 0.375, Pending_hits = 5523, Reservation_fails = 137
L2_total_cache_accesses = 196723
L2_total_cache_misses = 73732
L2_total_cache_miss_rate = 0.3748
L2_total_cache_pending_hits = 121204
L2_total_cache_reservation_fails = 3777
L2_total_cache_breakdown:
	L2_cache_stats_breakdown[GLOBAL_ACC_R][HIT] = 0
	L2_cache_stats_breakdown[GLOBAL_ACC_R][HIT_RESERVED] = 0
	L2_cache_stats_breakdown[GLOBAL_ACC_R][MISS] = 0
	L2_cache_stats_breakdown[GLOBAL_ACC_R][RESERVATION_FAIL] = 0
	L2_cache_stats_breakdown[LOCAL_ACC_R][HIT] = 0
	L2_cache_stats_breakdown[LOCAL_ACC_R][HIT_RESERVED] = 0
	L2_cache_stats_breakdown[LOCAL_ACC_R][MISS] = 0
	L2_cache_stats_breakdown[LOCAL_ACC_R][RESERVATION_FAIL] = 0
	L2_cache_stats_breakdown[CONST_ACC_R][HIT] = 0
	L2_cache_stats_breakdown[CONST_ACC_R][HIT_RESERVED] = 27
	L2_cache_stats_breakdown[CONST_ACC_R][MISS] = 1
	L2_cache_stats_breakdown[CONST_ACC_R][RESERVATION_FAIL] = 0
	L2_cache_stats_breakdown[TEXTURE_ACC_R][HIT] = 0
	L2_cache_stats_breakdown[TEXTURE_ACC_R][HIT_RESERVED] = 0
	L2_cache_stats_breakdown[TEXTURE_ACC_R][MISS] = 0
	L2_cache_stats_breakdown[TEXTURE_ACC_R][RESERVATION_FAIL] = 0
	L2_cache_stats_breakdown[GLOBAL_ACC_W][HIT] = 1787
	L2_cache_stats_breakdown[GLOBAL_ACC_W][HIT_RESERVED] = 121096
	L2_cache_stats_breakdown[GLOBAL_ACC_W][MISS] = 73728
	L2_cache_stats_breakdown[GLOBAL_ACC_W][RESERVATION_FAIL] = 3777
	L2_cache_stats_breakdown[LOCAL_ACC_W][HIT] = 0
	L2_cache_stats_breakdown[LOCAL_ACC_W][HIT_RESERVED] = 0
	L2_cache_stats_breakdown[LOCAL_ACC_W][MISS] = 0
	L2_cache_stats_breakdown[LOCAL_ACC_W][RESERVATION_FAIL] = 0
	L2_cache_stats_breakdown[L1_WRBK_ACC][HIT] = 0
	L2_cache_stats_breakdown[L1_WRBK_ACC][HIT_RESERVED] = 0
	L2_cache_stats_breakdown[L1_WRBK_ACC][MISS] = 0
	L2_cache_stats_breakdown[L1_WRBK_ACC][RESERVATION_FAIL] = 0
	L2_cache_stats_breakdown[L2_WRBK_ACC][HIT] = 0
	L2_cache_stats_breakdown[L2_WRBK_ACC][HIT_RESERVED] = 0
	L2_cache_stats_breakdown[L2_WRBK_ACC][MISS] = 0
	L2_cache_stats_breakdown[L2_WRBK_ACC][RESERVATION_FAIL] = 0
	L2_cache_stats_breakdown[INST_ACC_R][HIT] = 0
	L2_cache_stats_breakdown[INST_ACC_R][HIT_RESERVED] = 81
	L2_cache_stats_breakdown[INST_ACC_R][MISS] = 3
	L2_cache_stats_breakdown[INST_ACC_R][RESERVATION_FAIL] = 0
	L2_cache_stats_breakdown[L1_WR_ALLOC_R][HIT] = 0
	L2_cache_stats_breakdown[L1_WR_ALLOC_R][HIT_RESERVED] = 0
	L2_cache_stats_breakdown[L1_WR_ALLOC_R][MISS] = 0
	L2_cache_stats_breakdown[L1_WR_ALLOC_R][RESERVATION_FAIL] = 0
	L2_cache_stats_breakdown[L2_WR_ALLOC_R][HIT] = 0
	L2_cache_stats_breakdown[L2_WR_ALLOC_R][HIT_RESERVED] = 0
	L2_cache_stats_breakdown[L2_WR_ALLOC_R][MISS] = 0
	L2_cache_stats_breakdown[L2_WR_ALLOC_R][RESERVATION_FAIL] = 0
	L2_cache_stats_breakdown[CONST_ACC_R][TOTAL_ACCESS] = 28
	L2_cache_stats_breakdown[GLOBAL_ACC_W][TOTAL_ACCESS] = 196611
	L2_cache_stats_breakdown[INST_ACC_R][TOTAL_ACCESS] = 84
L2_cache_data_port_util = 0.000
L2_cache_fill_port_util = 0.012

icnt_total_pkts_mem_to_simt=197115
icnt_total_pkts_simt_to_mem=524406
LD_mem_lat_dist  0 0 0 0 0 0 0 0 0 0 0 0 0 0 0 0 0 0 0 0 0 0 0 0 0 0 0
ST_mem_lat_dist  0 0 0 0 0 0 0 0 0 0 0 0 0 0 0 0 0 0 0 0 0 0 0 0 0 0 0
----------------------------Interconnect-DETAILS--------------------------------
Class 0:
Packet latency average = 28.2613
	minimum = 6
	maximum = 844
Network latency average = 20.3072
	minimum = 6
	maximum = 818
Slowest packet = 86514
Flit latency average = 24.1222
	minimum = 6
	maximum = 816
Slowest flit = 687281
Fragmentation average = 0.525526
	minimum = 0
	maximum = 611
Injected packet rate average = 0.00354009
	minimum = 0.00311814 (at node 18)
	maximum = 0.00403545 (at node 28)
Accepted packet rate average = 0.00354009
	minimum = 0.00311814 (at node 18)
	maximum = 0.00403545 (at node 28)
Injected flit rate average = 0.006492
	minimum = 0.00401835 (at node 34)
	maximum = 0.00856037 (at node 4)
Accepted flit rate average= 0.006492
	minimum = 0.00312443 (at node 18)
	maximum = 0.0107387 (at node 28)
Injected packet length average = 1.83385
Accepted packet length average = 1.83385
Total in-flight flits = 0 (0 measured)
====== Overall Traffic Statistics ======
====== Traffic class 0 ======
Packet latency average = 28.2613 (1 samples)
	minimum = 6 (1 samples)
	maximum = 844 (1 samples)
Network latency average = 20.3072 (1 samples)
	minimum = 6 (1 samples)
	maximum = 818 (1 samples)
Flit latency average = 24.1222 (1 samples)
	minimum = 6 (1 samples)
	maximum = 816 (1 samples)
Fragmentation average = 0.525526 (1 samples)
	minimum = 0 (1 samples)
	maximum = 611 (1 samples)
Injected packet rate average = 0.00354009 (1 samples)
	minimum = 0.00311814 (1 samples)
	maximum = 0.00403545 (1 samples)
Accepted packet rate average = 0.00354009 (1 samples)
	minimum = 0.00311814 (1 samples)
	maximum = 0.00403545 (1 samples)
Injected flit rate average = 0.006492 (1 samples)
	minimum = 0.00401835 (1 samples)
	maximum = 0.00856037 (1 samples)
Accepted flit rate average = 0.006492 (1 samples)
	minimum = 0.00312443 (1 samples)
	maximum = 0.0107387 (1 samples)
Injected packet size average = 1.83385 (1 samples)
Accepted packet size average = 1.83385 (1 samples)
Hops average = 1 (1 samples)
----------------------------END-of-Interconnect-DETAILS-------------------------


gpgpu_simulation_time = 0 days, 0 hrs, 17 min, 8 sec (1028 sec)
gpgpu_simulation_rate = 26520 (inst/sec)
gpgpu_simulation_rate = 1297 (cycle/sec)

GPGPU-Sim PTX: cudaLaunch for 0x0x401da9 (mode=performance simulation) on stream 0
GPGPU-Sim PTX: pushing kernel '_Z7Kernel1PKiS0_PKfPbPfS4_ii' to stream 0, gridDim= (65536,1,1) blockDim = (16,1,1) 
GPGPU-Sim uArch: Shader 7 bind to kernel 2 '_Z7Kernel1PKiS0_PKfPbPfS4_ii'
GPGPU-Sim uArch: CTA/core = 32, limited by: cta_limit
GPGPU-Sim uArch: Shader 8 bind to kernel 2 '_Z7Kernel1PKiS0_PKfPbPfS4_ii'
GPGPU-Sim uArch: Shader 9 bind to kernel 2 '_Z7Kernel1PKiS0_PKfPbPfS4_ii'
GPGPU-Sim uArch: Shader 10 bind to kernel 2 '_Z7Kernel1PKiS0_PKfPbPfS4_ii'
GPGPU-Sim uArch: Shader 11 bind to kernel 2 '_Z7Kernel1PKiS0_PKfPbPfS4_ii'
GPGPU-Sim uArch: Shader 12 bind to kernel 2 '_Z7Kernel1PKiS0_PKfPbPfS4_ii'
GPGPU-Sim uArch: Shader 13 bind to kernel 2 '_Z7Kernel1PKiS0_PKfPbPfS4_ii'
GPGPU-Sim uArch: Shader 14 bind to kernel 2 '_Z7Kernel1PKiS0_PKfPbPfS4_ii'
GPGPU-Sim uArch: Shader 15 bind to kernel 2 '_Z7Kernel1PKiS0_PKfPbPfS4_ii'
GPGPU-Sim uArch: Shader 16 bind to kernel 2 '_Z7Kernel1PKiS0_PKfPbPfS4_ii'
GPGPU-Sim uArch: Shader 17 bind to kernel 2 '_Z7Kernel1PKiS0_PKfPbPfS4_ii'
GPGPU-Sim uArch: Shader 18 bind to kernel 2 '_Z7Kernel1PKiS0_PKfPbPfS4_ii'
GPGPU-Sim uArch: Shader 19 bind to kernel 2 '_Z7Kernel1PKiS0_PKfPbPfS4_ii'
GPGPU-Sim uArch: Shader 20 bind to kernel 2 '_Z7Kernel1PKiS0_PKfPbPfS4_ii'
GPGPU-Sim uArch: Shader 21 bind to kernel 2 '_Z7Kernel1PKiS0_PKfPbPfS4_ii'
GPGPU-Sim uArch: Shader 22 bind to kernel 2 '_Z7Kernel1PKiS0_PKfPbPfS4_ii'
GPGPU-Sim uArch: Shader 23 bind to kernel 2 '_Z7Kernel1PKiS0_PKfPbPfS4_ii'
GPGPU-Sim uArch: Shader 24 bind to kernel 2 '_Z7Kernel1PKiS0_PKfPbPfS4_ii'
GPGPU-Sim uArch: Shader 25 bind to kernel 2 '_Z7Kernel1PKiS0_PKfPbPfS4_ii'
GPGPU-Sim uArch: Shader 26 bind to kernel 2 '_Z7Kernel1PKiS0_PKfPbPfS4_ii'
GPGPU-Sim uArch: Shader 27 bind to kernel 2 '_Z7Kernel1PKiS0_PKfPbPfS4_ii'
GPGPU-Sim uArch: Shader 0 bind to kernel 2 '_Z7Kernel1PKiS0_PKfPbPfS4_ii'
GPGPU-Sim uArch: Shader 1 bind to kernel 2 '_Z7Kernel1PKiS0_PKfPbPfS4_ii'
GPGPU-Sim uArch: Shader 2 bind to kernel 2 '_Z7Kernel1PKiS0_PKfPbPfS4_ii'
GPGPU-Sim uArch: Shader 3 bind to kernel 2 '_Z7Kernel1PKiS0_PKfPbPfS4_ii'
GPGPU-Sim uArch: Shader 4 bind to kernel 2 '_Z7Kernel1PKiS0_PKfPbPfS4_ii'
GPGPU-Sim uArch: Shader 5 bind to kernel 2 '_Z7Kernel1PKiS0_PKfPbPfS4_ii'
GPGPU-Sim uArch: Shader 6 bind to kernel 2 '_Z7Kernel1PKiS0_PKfPbPfS4_ii'
GPGPU-Sim uArch: Shader 7 bind to kernel 2 '_Z7Kernel1PKiS0_PKfPbPfS4_ii'
GPGPU-Sim uArch: Shader 8 bind to kernel 2 '_Z7Kernel1PKiS0_PKfPbPfS4_ii'
GPGPU-Sim uArch: Shader 9 bind to kernel 2 '_Z7Kernel1PKiS0_PKfPbPfS4_ii'
GPGPU-Sim uArch: Shader 10 bind to kernel 2 '_Z7Kernel1PKiS0_PKfPbPfS4_ii'
GPGPU-Sim uArch: Shader 11 bind to kernel 2 '_Z7Kernel1PKiS0_PKfPbPfS4_ii'
GPGPU-Sim uArch: Shader 12 bind to kernel 2 '_Z7Kernel1PKiS0_PKfPbPfS4_ii'
GPGPU-Sim uArch: Shader 13 bind to kernel 2 '_Z7Kernel1PKiS0_PKfPbPfS4_ii'
GPGPU-Sim uArch: Shader 14 bind to kernel 2 '_Z7Kernel1PKiS0_PKfPbPfS4_ii'
GPGPU-Sim uArch: Shader 15 bind to kernel 2 '_Z7Kernel1PKiS0_PKfPbPfS4_ii'
GPGPU-Sim uArch: Shader 16 bind to kernel 2 '_Z7Kernel1PKiS0_PKfPbPfS4_ii'
GPGPU-Sim uArch: Shader 17 bind to kernel 2 '_Z7Kernel1PKiS0_PKfPbPfS4_ii'
GPGPU-Sim uArch: Shader 18 bind to kernel 2 '_Z7Kernel1PKiS0_PKfPbPfS4_ii'
GPGPU-Sim uArch: Shader 19 bind to kernel 2 '_Z7Kernel1PKiS0_PKfPbPfS4_ii'
GPGPU-Sim uArch: Shader 20 bind to kernel 2 '_Z7Kernel1PKiS0_PKfPbPfS4_ii'
GPGPU-Sim uArch: Shader 21 bind to kernel 2 '_Z7Kernel1PKiS0_PKfPbPfS4_ii'
GPGPU-Sim uArch: Shader 22 bind to kernel 2 '_Z7Kernel1PKiS0_PKfPbPfS4_ii'
GPGPU-Sim uArch: Shader 23 bind to kernel 2 '_Z7Kernel1PKiS0_PKfPbPfS4_ii'
GPGPU-Sim uArch: Shader 24 bind to kernel 2 '_Z7Kernel1PKiS0_PKfPbPfS4_ii'
GPGPU-Sim uArch: Shader 25 bind to kernel 2 '_Z7Kernel1PKiS0_PKfPbPfS4_ii'
GPGPU-Sim uArch: Shader 26 bind to kernel 2 '_Z7Kernel1PKiS0_PKfPbPfS4_ii'
GPGPU-Sim uArch: Shader 27 bind to kernel 2 '_Z7Kernel1PKiS0_PKfPbPfS4_ii'
GPGPU-Sim uArch: Shader 0 bind to kernel 2 '_Z7Kernel1PKiS0_PKfPbPfS4_ii'
GPGPU-Sim uArch: Shader 1 bind to kernel 2 '_Z7Kernel1PKiS0_PKfPbPfS4_ii'
GPGPU-Sim uArch: Shader 2 bind to kernel 2 '_Z7Kernel1PKiS0_PKfPbPfS4_ii'
GPGPU-Sim uArch: Shader 3 bind to kernel 2 '_Z7Kernel1PKiS0_PKfPbPfS4_ii'
GPGPU-Sim uArch: Shader 4 bind to kernel 2 '_Z7Kernel1PKiS0_PKfPbPfS4_ii'
GPGPU-Sim uArch: Shader 5 bind to kernel 2 '_Z7Kernel1PKiS0_PKfPbPfS4_ii'
GPGPU-Sim uArch: Shader 6 bind to kernel 2 '_Z7Kernel1PKiS0_PKfPbPfS4_ii'
Destroy streams for kernel 2: size 0
kernel_name = _Z7Kernel1PKiS0_PKfPbPfS4_ii 
kernel_launch_uid = 2 
gpu_sim_cycle = 61344
gpu_sim_insn = 20971571
gpu_ipc =     341.8683
gpu_tot_sim_cycle = 1738607
gpu_tot_sim_insn = 48234548
gpu_tot_ipc =      27.7432
gpu_tot_issued_cta = 131072
max_total_param_size = 0
gpu_stall_dramfull = 343311
gpu_stall_icnt2sh    = 2486
partiton_reqs_in_parallel = 1349568
partiton_reqs_in_parallel_total    = 24107533
partiton_level_parallism =      22.0000
partiton_level_parallism_total  =      14.6422
partiton_reqs_in_parallel_util = 1349568
partiton_reqs_in_parallel_util_total    = 24107533
gpu_sim_cycle_parition_util = 61344
gpu_tot_sim_cycle_parition_util    = 1110683
partiton_level_parallism_util =      22.0000
partiton_level_parallism_util_total  =      21.7206
partiton_replys_in_parallel = 65606
partiton_replys_in_parallel_total    = 196723
L2_BW  =     101.3693 GB/Sec
L2_BW_total  =      14.3014 GB/Sec
gpu_total_sim_rate=42126

========= Core cache stats =========
L1I_cache:
	L1I_total_cache_accesses = 1769506
	L1I_total_cache_misses = 4480
	L1I_total_cache_miss_rate = 0.0025
	L1I_total_cache_pending_hits = 0
	L1I_total_cache_reservation_fails = 0
L1D_cache:
	L1D_cache_core[0]: Access = 0, Miss = 0, Miss_rate = -nan, Pending_hits = 0, Reservation_fails = 0
	L1D_cache_core[1]: Access = 0, Miss = 0, Miss_rate = -nan, Pending_hits = 0, Reservation_fails = 0
	L1D_cache_core[2]: Access = 0, Miss = 0, Miss_rate = -nan, Pending_hits = 0, Reservation_fails = 0
	L1D_cache_core[3]: Access = 0, Miss = 0, Miss_rate = -nan, Pending_hits = 0, Reservation_fails = 0
	L1D_cache_core[4]: Access = 0, Miss = 0, Miss_rate = -nan, Pending_hits = 0, Reservation_fails = 0
	L1D_cache_core[5]: Access = 0, Miss = 0, Miss_rate = -nan, Pending_hits = 0, Reservation_fails = 0
	L1D_cache_core[6]: Access = 0, Miss = 0, Miss_rate = -nan, Pending_hits = 0, Reservation_fails = 0
	L1D_cache_core[7]: Access = 0, Miss = 0, Miss_rate = -nan, Pending_hits = 0, Reservation_fails = 0
	L1D_cache_core[8]: Access = 0, Miss = 0, Miss_rate = -nan, Pending_hits = 0, Reservation_fails = 0
	L1D_cache_core[9]: Access = 0, Miss = 0, Miss_rate = -nan, Pending_hits = 0, Reservation_fails = 0
	L1D_cache_core[10]: Access = 0, Miss = 0, Miss_rate = -nan, Pending_hits = 0, Reservation_fails = 0
	L1D_cache_core[11]: Access = 0, Miss = 0, Miss_rate = -nan, Pending_hits = 0, Reservation_fails = 0
[...]
F: 40158855----T: 40400935 	 St: c0600000 Sz: 2097152 	 Sm: 0 	 T: write_back(163.457123)
F: 40279944----T: 40282549 	 St: c1210000 Sz: 4096 	 Sm: 0 	 T: memcpy_h2d(1.758947)
F: 40282549----T: 40290789 	 St: c1211000 Sz: 61440 	 Sm: 0 	 T: memcpy_h2d(5.563808)
F: 40401905----T: 40404705 	 St: c0a20000 Sz: 8192 	 Sm: 0 	 T: memcpy_h2d(1.890614)
F: 40404705----T: 40419931 	 St: c0a22000 Sz: 122880 	 Sm: 0 	 T: memcpy_h2d(10.280891)
F: 40419931----T: 40422536 	 St: c0a40000 Sz: 4096 	 Sm: 0 	 T: memcpy_h2d(1.758947)
F: 40422536----T: 40453259 	 St: c0a41000 Sz: 258048 	 Sm: 0 	 T: memcpy_h2d(20.744766)
F: 40453259----T: 40456059 	 St: c1220000 Sz: 8192 	 Sm: 0 	 T: memcpy_h2d(1.890614)
F: 40456059----T: 40471285 	 St: c1222000 Sz: 122880 	 Sm: 0 	 T: memcpy_h2d(10.280891)
F: 40471285----T: 40473890 	 St: c1240000 Sz: 4096 	 Sm: 0 	 T: memcpy_h2d(1.758947)
F: 40473890----T: 40504613 	 St: c1241000 Sz: 258048 	 Sm: 0 	 T: memcpy_h2d(20.744766)
F: 40506109----T: 40508714 	 St: c0a80000 Sz: 4096 	 Sm: 0 	 T: memcpy_h2d(1.758947)
F: 40508714----T: 40569550 	 St: c0a81000 Sz: 520192 	 Sm: 0 	 T: memcpy_h2d(41.077652)
F: 40569550----T: 40572155 	 St: c1280000 Sz: 4096 	 Sm: 0 	 T: memcpy_h2d(1.758947)
F: 40572155----T: 40632991 	 St: c1281000 Sz: 520192 	 Sm: 0 	 T: memcpy_h2d(41.077652)
F: 40635463----T: 40638263 	 St: c0b00000 Sz: 8192 	 Sm: 0 	 T: memcpy_h2d(1.890614)
F: 40635463----T: 40877543 	 St: c0e00000 Sz: 2097152 	 Sm: 0 	 T: write_back(163.457123)
F: 40638263----T: 40758881 	 St: c0b02000 Sz: 1040384 	 Sm: 0 	 T: memcpy_h2d(81.443619)
F: 40758881----T: 40761681 	 St: c1300000 Sz: 8192 	 Sm: 0 	 T: memcpy_h2d(1.890614)
F: 40761681----T: 40882299 	 St: c1302000 Sz: 1040384 	 Sm: 0 	 T: memcpy_h2d(81.443619)
F: 41111866----T: 41162994 	 	 	 Kl: 29 	 Sm: 0 	 T: kernel_launch(34.522621)
F: 41385144----T: 45140589 	 	 	 Kl: 30 	 Sm: 0 	 T: kernel_launch(2535.749512)
F: 41385670----T: 41388470 	 St: c0000000 Sz: 8192 	 Sm: 0 	 T: memcpy_h2d(1.890614)
F: 41385670----T: 41627750 	 St: c0800000 Sz: 2097152 	 Sm: 0 	 T: write_back(163.457123)
F: 41388470----T: 41396250 	 St: c0002000 Sz: 57344 	 Sm: 0 	 T: memcpy_h2d(5.253207)
F: 41396250----T: 41398855 	 St: c0010000 Sz: 4096 	 Sm: 0 	 T: memcpy_h2d(1.758947)
F: 41398855----T: 41407095 	 St: c0011000 Sz: 61440 	 Sm: 0 	 T: memcpy_h2d(5.563808)
F: 41407095----T: 41409895 	 St: c0400000 Sz: 8192 	 Sm: 0 	 T: memcpy_h2d(1.890614)
F: 41409895----T: 41412500 	 St: c0402000 Sz: 4096 	 Sm: 0 	 T: memcpy_h2d(1.758947)
F: 41412500----T: 41415105 	 St: c0403000 Sz: 4096 	 Sm: 0 	 T: memcpy_h2d(1.758947)
F: 41415105----T: 41421970 	 St: c0404000 Sz: 49152 	 Sm: 0 	 T: memcpy_h2d(4.635382)
F: 41421970----T: 41424770 	 St: c0410000 Sz: 8192 	 Sm: 0 	 T: memcpy_h2d(1.890614)
F: 41424770----T: 41432550 	 St: c0412000 Sz: 57344 	 Sm: 0 	 T: memcpy_h2d(5.253207)
F: 41432550----T: 41435350 	 St: c0420000 Sz: 8192 	 Sm: 0 	 T: memcpy_h2d(1.890614)
F: 41435350----T: 41450576 	 St: c0422000 Sz: 122880 	 Sm: 0 	 T: memcpy_h2d(10.280891)
F: 41450576----T: 41453181 	 St: c0c00000 Sz: 4096 	 Sm: 0 	 T: memcpy_h2d(1.758947)
F: 41453181----T: 41455786 	 St: c0c01000 Sz: 4096 	 Sm: 0 	 T: memcpy_h2d(1.758947)
F: 41455786----T: 41463566 	 St: c0c02000 Sz: 57344 	 Sm: 0 	 T: memcpy_h2d(5.253207)
F: 41463566----T: 41466171 	 St: c0c10000 Sz: 4096 	 Sm: 0 	 T: memcpy_h2d(1.758947)
F: 41466171----T: 41468776 	 St: c0c11000 Sz: 4096 	 Sm: 0 	 T: memcpy_h2d(1.758947)
F: 41468776----T: 41476556 	 St: c0c12000 Sz: 57344 	 Sm: 0 	 T: memcpy_h2d(5.253207)
F: 41476556----T: 41479161 	 St: c0c20000 Sz: 4096 	 Sm: 0 	 T: memcpy_h2d(1.758947)
F: 41479161----T: 41481766 	 St: c0c21000 Sz: 4096 	 Sm: 0 	 T: memcpy_h2d(1.758947)
F: 41481766----T: 41496992 	 St: c0c22000 Sz: 122880 	 Sm: 0 	 T: memcpy_h2d(10.280891)
F: 41628440----T: 41631045 	 St: c0020000 Sz: 4096 	 Sm: 0 	 T: memcpy_h2d(1.758947)
F: 41631045----T: 41646740 	 St: c0021000 Sz: 126976 	 Sm: 0 	 T: memcpy_h2d(10.597569)
F: 41646740----T: 41649345 	 St: c0440000 Sz: 4096 	 Sm: 0 	 T: memcpy_h2d(1.758947)
F: 41649345----T: 41651950 	 St: c0441000 Sz: 4096 	 Sm: 0 	 T: memcpy_h2d(1.758947)
F: 41651950----T: 41682203 	 St: c0442000 Sz: 253952 	 Sm: 0 	 T: memcpy_h2d(20.427414)
F: 41682203----T: 41684808 	 St: c0c40000 Sz: 4096 	 Sm: 0 	 T: memcpy_h2d(1.758947)
F: 41684808----T: 41715531 	 St: c0c41000 Sz: 258048 	 Sm: 0 	 T: memcpy_h2d(20.744766)
F: 41716644----T: 41719249 	 St: c0040000 Sz: 4096 	 Sm: 0 	 T: memcpy_h2d(1.758947)
F: 41719249----T: 41749972 	 St: c0041000 Sz: 258048 	 Sm: 0 	 T: memcpy_h2d(20.744766)
F: 41749972----T: 41752577 	 St: c0480000 Sz: 4096 	 Sm: 0 	 T: memcpy_h2d(1.758947)
F: 41752577----T: 41755182 	 St: c0481000 Sz: 4096 	 Sm: 0 	 T: memcpy_h2d(1.758947)
F: 41752965----T: 41995045 	 St: c1000000 Sz: 2097152 	 Sm: 0 	 T: write_back(163.457123)
F: 41755182----T: 41815547 	 St: c0482000 Sz: 516096 	 Sm: 0 	 T: memcpy_h2d(40.759621)
F: 41815547----T: 41818152 	 St: c0c80000 Sz: 4096 	 Sm: 0 	 T: memcpy_h2d(1.758947)
F: 41818152----T: 41878988 	 St: c0c81000 Sz: 520192 	 Sm: 0 	 T: memcpy_h2d(41.077652)
F: 41998786----T: 42001391 	 St: c0080000 Sz: 4096 	 Sm: 0 	 T: memcpy_h2d(1.758947)
F: 42001391----T: 42062227 	 St: c0081000 Sz: 520192 	 Sm: 0 	 T: memcpy_h2d(41.077652)
F: 42062227----T: 42064832 	 St: c0500000 Sz: 4096 	 Sm: 0 	 T: memcpy_h2d(1.758947)
F: 42064832----T: 42067437 	 St: c0501000 Sz: 4096 	 Sm: 0 	 T: memcpy_h2d(1.758947)
F: 42065220----T: 42307300 	 St: c0200000 Sz: 2097152 	 Sm: 0 	 T: write_back(163.457123)
F: 42067437----T: 42188055 	 St: c0502000 Sz: 1040384 	 Sm: 0 	 T: memcpy_h2d(81.443619)
F: 42188055----T: 42190660 	 St: c0d00000 Sz: 4096 	 Sm: 0 	 T: memcpy_h2d(1.758947)
F: 42190660----T: 42311749 	 St: c0d01000 Sz: 1044480 	 Sm: 0 	 T: memcpy_h2d(81.761650)
F: 42319626----T: 42322231 	 St: c0100000 Sz: 4096 	 Sm: 0 	 T: memcpy_h2d(1.758947)
F: 42322231----T: 42443320 	 St: c0101000 Sz: 1044480 	 Sm: 0 	 T: memcpy_h2d(81.761650)
F: 42322638----T: 42564718 	 St: c0a00000 Sz: 2097152 	 Sm: 0 	 T: write_back(163.457123)
F: 42443320----T: 42446120 	 St: c0600000 Sz: 8192 	 Sm: 0 	 T: memcpy_h2d(1.890614)
F: 42446120----T: 42453900 	 St: c0602000 Sz: 57344 	 Sm: 0 	 T: memcpy_h2d(5.253207)
F: 42453900----T: 42456700 	 St: c0e00000 Sz: 8192 	 Sm: 0 	 T: memcpy_h2d(1.890614)
F: 42456700----T: 42464480 	 St: c0e02000 Sz: 57344 	 Sm: 0 	 T: memcpy_h2d(5.253207)
F: 42565636----T: 42568241 	 St: c0610000 Sz: 4096 	 Sm: 0 	 T: memcpy_h2d(1.758947)
F: 42568241----T: 42576481 	 St: c0611000 Sz: 61440 	 Sm: 0 	 T: memcpy_h2d(5.563808)
F: 42576481----T: 42579281 	 St: c0620000 Sz: 8192 	 Sm: 0 	 T: memcpy_h2d(1.890614)
F: 42579281----T: 42594507 	 St: c0622000 Sz: 122880 	 Sm: 0 	 T: memcpy_h2d(10.280891)
F: 42594507----T: 42597112 	 St: c0640000 Sz: 4096 	 Sm: 0 	 T: memcpy_h2d(1.758947)
F: 42597112----T: 42627835 	 St: c0641000 Sz: 258048 	 Sm: 0 	 T: memcpy_h2d(20.744766)
F: 42627835----T: 42630440 	 St: c0e10000 Sz: 4096 	 Sm: 0 	 T: memcpy_h2d(1.758947)
F: 42630440----T: 42638680 	 St: c0e11000 Sz: 61440 	 Sm: 0 	 T: memcpy_h2d(5.563808)
F: 42638680----T: 42641285 	 St: c0e20000 Sz: 4096 	 Sm: 0 	 T: memcpy_h2d(1.758947)
F: 42641285----T: 42643890 	 St: c0e21000 Sz: 4096 	 Sm: 0 	 T: memcpy_h2d(1.758947)
F: 42643890----T: 42659116 	 St: c0e22000 Sz: 122880 	 Sm: 0 	 T: memcpy_h2d(10.280891)
F: 42659116----T: 42661721 	 St: c0e40000 Sz: 4096 	 Sm: 0 	 T: memcpy_h2d(1.758947)
F: 42661721----T: 42692444 	 St: c0e41000 Sz: 258048 	 Sm: 0 	 T: memcpy_h2d(20.744766)
F: 42694322----T: 42696927 	 St: c0680000 Sz: 4096 	 Sm: 0 	 T: memcpy_h2d(1.758947)
F: 42696927----T: 42757763 	 St: c0681000 Sz: 520192 	 Sm: 0 	 T: memcpy_h2d(41.077652)
F: 42757763----T: 42760368 	 St: c0e80000 Sz: 4096 	 Sm: 0 	 T: memcpy_h2d(1.758947)
F: 42760368----T: 42821204 	 St: c0e81000 Sz: 520192 	 Sm: 0 	 T: memcpy_h2d(41.077652)
F: 42824782----T: 42827582 	 St: c0700000 Sz: 8192 	 Sm: 0 	 T: memcpy_h2d(1.890614)
F: 42824782----T: 43066862 	 St: c1200000 Sz: 2097152 	 Sm: 0 	 T: write_back(163.457123)
F: 42827582----T: 42948200 	 St: c0702000 Sz: 1040384 	 Sm: 0 	 T: memcpy_h2d(81.443619)
F: 42948200----T: 42950805 	 St: c0f00000 Sz: 4096 	 Sm: 0 	 T: memcpy_h2d(1.758947)
F: 42950805----T: 42953410 	 St: c0f01000 Sz: 4096 	 Sm: 0 	 T: memcpy_h2d(1.758947)
F: 42953410----T: 43074028 	 St: c0f02000 Sz: 1040384 	 Sm: 0 	 T: memcpy_h2d(81.443619)
F: 43081394----T: 43083999 	 St: c0200000 Sz: 4096 	 Sm: 0 	 T: memcpy_h2d(1.758947)
F: 43081394----T: 43323474 	 St: c1600000 Sz: 2097152 	 Sm: 0 	 T: write_back(163.457123)
F: 43083999----T: 43092239 	 St: c0201000 Sz: 61440 	 Sm: 0 	 T: memcpy_h2d(5.563808)
F: 43092239----T: 43094844 	 St: c0800000 Sz: 4096 	 Sm: 0 	 T: memcpy_h2d(1.758947)
F: 43094844----T: 43097449 	 St: c0801000 Sz: 4096 	 Sm: 0 	 T: memcpy_h2d(1.758947)
F: 43097449----T: 43105229 	 St: c0802000 Sz: 57344 	 Sm: 0 	 T: memcpy_h2d(5.253207)
F: 43105229----T: 43107834 	 St: c1000000 Sz: 4096 	 Sm: 0 	 T: memcpy_h2d(1.758947)
F: 43107834----T: 43116074 	 St: c1001000 Sz: 61440 	 Sm: 0 	 T: memcpy_h2d(5.563808)
F: 43116074----T: 43118679 	 St: c1600000 Sz: 4096 	 Sm: 0 	 T: memcpy_h2d(1.758947)
F: 43118679----T: 43126919 	 St: c1601000 Sz: 61440 	 Sm: 0 	 T: memcpy_h2d(5.563808)
F: 43324107----T: 43326712 	 St: c0210000 Sz: 4096 	 Sm: 0 	 T: memcpy_h2d(1.758947)
F: 43326712----T: 43334952 	 St: c0211000 Sz: 61440 	 Sm: 0 	 T: memcpy_h2d(5.563808)
F: 43334952----T: 43337752 	 St: c0810000 Sz: 8192 	 Sm: 0 	 T: memcpy_h2d(1.890614)
F: 43337752----T: 43345532 	 St: c0812000 Sz: 57344 	 Sm: 0 	 T: memcpy_h2d(5.253207)
F: 43345532----T: 43348137 	 St: c0820000 Sz: 4096 	 Sm: 0 	 T: memcpy_h2d(1.758947)
F: 43348137----T: 43363832 	 St: c0821000 Sz: 126976 	 Sm: 0 	 T: memcpy_h2d(10.597569)
F: 43363832----T: 43366437 	 St: c1010000 Sz: 4096 	 Sm: 0 	 T: memcpy_h2d(1.758947)
F: 43366437----T: 43374677 	 St: c1011000 Sz: 61440 	 Sm: 0 	 T: memcpy_h2d(5.563808)
F: 43374677----T: 43377282 	 St: c1020000 Sz: 4096 	 Sm: 0 	 T: memcpy_h2d(1.758947)
F: 43377282----T: 43392977 	 St: c1021000 Sz: 126976 	 Sm: 0 	 T: memcpy_h2d(10.597569)
F: 43392977----T: 43395582 	 St: c1610000 Sz: 4096 	 Sm: 0 	 T: memcpy_h2d(1.758947)
F: 43395582----T: 43403822 	 St: c1611000 Sz: 61440 	 Sm: 0 	 T: memcpy_h2d(5.563808)
F: 43404332----T: 43406937 	 St: c0220000 Sz: 4096 	 Sm: 0 	 T: memcpy_h2d(1.758947)
F: 43406937----T: 43422632 	 St: c0221000 Sz: 126976 	 Sm: 0 	 T: memcpy_h2d(10.597569)
F: 43422632----T: 43425237 	 St: c0840000 Sz: 4096 	 Sm: 0 	 T: memcpy_h2d(1.758947)
F: 43425237----T: 43455960 	 St: c0841000 Sz: 258048 	 Sm: 0 	 T: memcpy_h2d(20.744766)
F: 43455960----T: 43458565 	 St: c1040000 Sz: 4096 	 Sm: 0 	 T: memcpy_h2d(1.758947)
F: 43458565----T: 43489288 	 St: c1041000 Sz: 258048 	 Sm: 0 	 T: memcpy_h2d(20.744766)
F: 43489288----T: 43491893 	 St: c1620000 Sz: 4096 	 Sm: 0 	 T: memcpy_h2d(1.758947)
F: 43491893----T: 43507588 	 St: c1621000 Sz: 126976 	 Sm: 0 	 T: memcpy_h2d(10.597569)
F: 43508613----T: 43511218 	 St: c0240000 Sz: 4096 	 Sm: 0 	 T: memcpy_h2d(1.758947)
F: 43511218----T: 43541941 	 St: c0241000 Sz: 258048 	 Sm: 0 	 T: memcpy_h2d(20.744766)
F: 43511625----T: 43753705 	 St: c0400000 Sz: 2097152 	 Sm: 0 	 T: write_back(163.457123)
F: 43541941----T: 43544546 	 St: c0880000 Sz: 4096 	 Sm: 0 	 T: memcpy_h2d(1.758947)
F: 43544546----T: 43605382 	 St: c0881000 Sz: 520192 	 Sm: 0 	 T: memcpy_h2d(41.077652)
F: 43605382----T: 43607987 	 St: c1080000 Sz: 4096 	 Sm: 0 	 T: memcpy_h2d(1.758947)
F: 43607987----T: 43668823 	 St: c1081000 Sz: 520192 	 Sm: 0 	 T: memcpy_h2d(41.077652)
F: 43668823----T: 43671428 	 St: c1640000 Sz: 4096 	 Sm: 0 	 T: memcpy_h2d(1.758947)
F: 43671428----T: 43702151 	 St: c1641000 Sz: 258048 	 Sm: 0 	 T: memcpy_h2d(20.744766)
F: 43756735----T: 43759340 	 St: c0280000 Sz: 4096 	 Sm: 0 	 T: memcpy_h2d(1.758947)
F: 43759340----T: 43820176 	 St: c0281000 Sz: 520192 	 Sm: 0 	 T: memcpy_h2d(41.077652)
F: 43759747----T: 44001827 	 St: c0c00000 Sz: 2097152 	 Sm: 0 	 T: write_back(163.457123)
F: 43820176----T: 43822781 	 St: c0900000 Sz: 4096 	 Sm: 0 	 T: memcpy_h2d(1.758947)
F: 43822781----T: 43825386 	 St: c0901000 Sz: 4096 	 Sm: 0 	 T: memcpy_h2d(1.758947)
F: 43825386----T: 43946004 	 St: c0902000 Sz: 1040384 	 Sm: 0 	 T: memcpy_h2d(81.443619)
F: 43946004----T: 43948609 	 St: c1100000 Sz: 4096 	 Sm: 0 	 T: memcpy_h2d(1.758947)
F: 43948609----T: 44069698 	 St: c1101000 Sz: 1044480 	 Sm: 0 	 T: memcpy_h2d(81.761650)
F: 44069698----T: 44072303 	 St: c1680000 Sz: 4096 	 Sm: 0 	 T: memcpy_h2d(1.758947)
F: 44072303----T: 44133139 	 St: c1681000 Sz: 520192 	 Sm: 0 	 T: memcpy_h2d(41.077652)
F: 44141054----T: 44143659 	 St: c0300000 Sz: 4096 	 Sm: 0 	 T: memcpy_h2d(1.758947)
F: 44141054----T: 44383134 	 St: c0000000 Sz: 2097152 	 Sm: 0 	 T: write_back(163.457123)
F: 44143659----T: 44264748 	 St: c0301000 Sz: 1044480 	 Sm: 0 	 T: memcpy_h2d(81.761650)
F: 44264748----T: 44267548 	 St: c0a00000 Sz: 8192 	 Sm: 0 	 T: memcpy_h2d(1.890614)
F: 44267548----T: 44275328 	 St: c0a02000 Sz: 57344 	 Sm: 0 	 T: memcpy_h2d(5.253207)
F: 44275328----T: 44277933 	 St: c1200000 Sz: 4096 	 Sm: 0 	 T: memcpy_h2d(1.758947)
F: 44277933----T: 44280538 	 St: c1201000 Sz: 4096 	 Sm: 0 	 T: memcpy_h2d(1.758947)
F: 44280538----T: 44288318 	 St: c1202000 Sz: 57344 	 Sm: 0 	 T: memcpy_h2d(5.253207)
F: 44288318----T: 44290923 	 St: c1700000 Sz: 4096 	 Sm: 0 	 T: memcpy_h2d(1.758947)
F: 44383135----T: 44504224 	 St: c1701000 Sz: 1044480 	 Sm: 0 	 T: memcpy_h2d(81.761650)
F: 44383135----T: 44625215 	 St: c0600000 Sz: 2097152 	 Sm: 0 	 T: write_back(163.457123)
F: 44626149----T: 44628754 	 St: c0a10000 Sz: 4096 	 Sm: 0 	 T: memcpy_h2d(1.758947)
F: 44628754----T: 44636994 	 St: c0a11000 Sz: 61440 	 Sm: 0 	 T: memcpy_h2d(5.563808)
F: 44636994----T: 44639599 	 St: c0a20000 Sz: 4096 	 Sm: 0 	 T: memcpy_h2d(1.758947)
F: 44639599----T: 44655294 	 St: c0a21000 Sz: 126976 	 Sm: 0 	 T: memcpy_h2d(10.597569)
F: 44655294----T: 44657899 	 St: c0a40000 Sz: 4096 	 Sm: 0 	 T: memcpy_h2d(1.758947)
F: 44657899----T: 44688622 	 St: c0a41000 Sz: 258048 	 Sm: 0 	 T: memcpy_h2d(20.744766)
F: 44688622----T: 44691227 	 St: c1210000 Sz: 4096 	 Sm: 0 	 T: memcpy_h2d(1.758947)
F: 44691227----T: 44699467 	 St: c1211000 Sz: 61440 	 Sm: 0 	 T: memcpy_h2d(5.563808)
F: 44699467----T: 44702072 	 St: c1220000 Sz: 4096 	 Sm: 0 	 T: memcpy_h2d(1.758947)
F: 44702072----T: 44717767 	 St: c1221000 Sz: 126976 	 Sm: 0 	 T: memcpy_h2d(10.597569)
F: 44717767----T: 44720372 	 St: c1240000 Sz: 4096 	 Sm: 0 	 T: memcpy_h2d(1.758947)
F: 44720372----T: 44751095 	 St: c1241000 Sz: 258048 	 Sm: 0 	 T: memcpy_h2d(20.744766)
F: 44752923----T: 44755528 	 St: c0a80000 Sz: 4096 	 Sm: 0 	 T: memcpy_h2d(1.758947)
F: 44755528----T: 44816364 	 St: c0a81000 Sz: 520192 	 Sm: 0 	 T: memcpy_h2d(41.077652)
F: 44816364----T: 44818969 	 St: c1280000 Sz: 4096 	 Sm: 0 	 T: memcpy_h2d(1.758947)
F: 44818969----T: 44879805 	 St: c1281000 Sz: 520192 	 Sm: 0 	 T: memcpy_h2d(41.077652)
F: 44883222----T: 44885827 	 St: c0b00000 Sz: 4096 	 Sm: 0 	 T: memcpy_h2d(1.758947)
F: 44883222----T: 45125302 	 St: c0e00000 Sz: 2097152 	 Sm: 0 	 T: write_back(163.457123)
F: 44885827----T: 45006916 	 St: c0b01000 Sz: 1044480 	 Sm: 0 	 T: memcpy_h2d(81.761650)
F: 45006916----T: 45009521 	 St: c1300000 Sz: 4096 	 Sm: 0 	 T: memcpy_h2d(1.758947)
F: 45009521----T: 45130610 	 St: c1301000 Sz: 1044480 	 Sm: 0 	 T: memcpy_h2d(81.761650)
F: 45362739----T: 45417849 	 	 	 Kl: 31 	 Sm: 0 	 T: kernel_launch(37.211342)
F: 45417849----T: 45539409 	 St: 80000000 Sz: 1048576 	 Sm: 0 	 T: memcpy_d2h(82.079674)
F: 45539410----T: 45542015 	 St: 0 Sz: 4096 	 Sm: 0 	 T: device_sync(1.758947)
F: 45539410----T: 45547650 	 St: 0 Sz: 61440 	 Sm: 0 	 T: device_sync(5.563808)
F: 45550255----T: 45552860 	 St: 0 Sz: 4096 	 Sm: 0 	 T: device_sync(1.758947)
F: 45550255----T: 45558495 	 St: 0 Sz: 61440 	 Sm: 0 	 T: device_sync(5.563808)
F: 45561100----T: 45563705 	 St: 0 Sz: 4096 	 Sm: 0 	 T: device_sync(1.758947)
F: 45561100----T: 45576795 	 St: 0 Sz: 126976 	 Sm: 0 	 T: device_sync(10.597569)
F: 45579400----T: 45582005 	 St: 0 Sz: 4096 	 Sm: 0 	 T: device_sync(1.758947)
F: 45579400----T: 45610123 	 St: 0 Sz: 258048 	 Sm: 0 	 T: device_sync(20.744766)
F: 45612728----T: 45615333 	 St: 0 Sz: 4096 	 Sm: 0 	 T: device_sync(1.758947)
F: 45612728----T: 45673564 	 St: 0 Sz: 520192 	 Sm: 0 	 T: device_sync(41.077652)
F: 45676169----T: 45678774 	 St: 0 Sz: 4096 	 Sm: 0 	 T: device_sync(1.758947)
F: 45676169----T: 45797258 	 St: 0 Sz: 1044480 	 Sm: 0 	 T: device_sync(81.761650)
F: 45799863----T: 45802468 	 St: 0 Sz: 4096 	 Sm: 0 	 T: device_sync(1.758947)
F: 45799863----T: 45808103 	 St: 0 Sz: 61440 	 Sm: 0 	 T: device_sync(5.563808)
F: 45810708----T: 45813313 	 St: 0 Sz: 4096 	 Sm: 0 	 T: device_sync(1.758947)
F: 45810708----T: 45818948 	 St: 0 Sz: 61440 	 Sm: 0 	 T: device_sync(5.563808)
F: 45821553----T: 45824158 	 St: 0 Sz: 4096 	 Sm: 0 	 T: device_sync(1.758947)
F: 45821553----T: 45837248 	 St: 0 Sz: 126976 	 Sm: 0 	 T: device_sync(10.597569)
F: 45839853----T: 45842458 	 St: 0 Sz: 4096 	 Sm: 0 	 T: device_sync(1.758947)
F: 45839853----T: 45870576 	 St: 0 Sz: 258048 	 Sm: 0 	 T: device_sync(20.744766)
F: 45873181----T: 45875786 	 St: 0 Sz: 4096 	 Sm: 0 	 T: device_sync(1.758947)
F: 45873181----T: 45934017 	 St: 0 Sz: 520192 	 Sm: 0 	 T: device_sync(41.077652)
F: 45936622----T: 45939227 	 St: 0 Sz: 4096 	 Sm: 0 	 T: device_sync(1.758947)
F: 45936622----T: 46057711 	 St: 0 Sz: 1044480 	 Sm: 0 	 T: device_sync(81.761650)
F: 46060316----T: 46062921 	 St: 0 Sz: 4096 	 Sm: 0 	 T: device_sync(1.758947)
F: 46060316----T: 46068556 	 St: 0 Sz: 61440 	 Sm: 0 	 T: device_sync(5.563808)
F: 46071161----T: 46073766 	 St: 0 Sz: 4096 	 Sm: 0 	 T: device_sync(1.758947)
F: 46071161----T: 46079401 	 St: 0 Sz: 61440 	 Sm: 0 	 T: device_sync(5.563808)
F: 46082006----T: 46084611 	 St: 0 Sz: 4096 	 Sm: 0 	 T: device_sync(1.758947)
F: 46082006----T: 46097701 	 St: 0 Sz: 126976 	 Sm: 0 	 T: device_sync(10.597569)
F: 46100306----T: 46102911 	 St: 0 Sz: 4096 	 Sm: 0 	 T: device_sync(1.758947)
F: 46100306----T: 46131029 	 St: 0 Sz: 258048 	 Sm: 0 	 T: device_sync(20.744766)
F: 46133634----T: 46136239 	 St: 0 Sz: 4096 	 Sm: 0 	 T: device_sync(1.758947)
F: 46133634----T: 46194470 	 St: 0 Sz: 520192 	 Sm: 0 	 T: device_sync(41.077652)
F: 46197075----T: 46199680 	 St: 0 Sz: 4096 	 Sm: 0 	 T: device_sync(1.758947)
F: 46197075----T: 46318164 	 St: 0 Sz: 1044480 	 Sm: 0 	 T: device_sync(81.761650)
F: 46320769----T: 46323374 	 St: 0 Sz: 4096 	 Sm: 0 	 T: device_sync(1.758947)
F: 46320769----T: 46329009 	 St: 0 Sz: 61440 	 Sm: 0 	 T: device_sync(5.563808)
F: 46331614----T: 46334219 	 St: 0 Sz: 4096 	 Sm: 0 	 T: device_sync(1.758947)
F: 46331614----T: 46339854 	 St: 0 Sz: 61440 	 Sm: 0 	 T: device_sync(5.563808)
F: 46342459----T: 46345064 	 St: 0 Sz: 4096 	 Sm: 0 	 T: device_sync(1.758947)
F: 46342459----T: 46358154 	 St: 0 Sz: 126976 	 Sm: 0 	 T: device_sync(10.597569)
F: 46360759----T: 46363364 	 St: 0 Sz: 4096 	 Sm: 0 	 T: device_sync(1.758947)
F: 46360759----T: 46391482 	 St: 0 Sz: 258048 	 Sm: 0 	 T: device_sync(20.744766)
F: 46394087----T: 46396692 	 St: 0 Sz: 4096 	 Sm: 0 	 T: device_sync(1.758947)
F: 46394087----T: 46454923 	 St: 0 Sz: 520192 	 Sm: 0 	 T: device_sync(41.077652)
F: 46457528----T: 46460133 	 St: 0 Sz: 4096 	 Sm: 0 	 T: device_sync(1.758947)
F: 46457528----T: 46578617 	 St: 0 Sz: 1044480 	 Sm: 0 	 T: device_sync(81.761650)
Tot_prefetch_time: 0(cycle), 0.000000(us)
Tot_kernel_exec_time: 38166516(cycle), 25770.773438(us)
Tot_kernel_exec_time_and_fault_time: 95547861(cycle), 64515.777344(us)
Tot_memcpy_h2d_time: 30031680(cycle), 20277.974609(us)
Tot_memcpy_d2h_time: 486240(cycle), 328.318695(us)
Tot_memcpy_time: 30517920(cycle), 20606.292969(us)
Tot_devicesync_time: 1041812(cycle), 703.451721(us)
Tot_writeback_time: 25418400(cycle), 17162.998047(us)
Tot_dma_time: 0(cycle), 0.000000(us)
Tot_memcpy_d2h_sync_wb_time: 26946452(cycle), 18194.767578(us)
GPGPU-Sim: *** exit detected ***
