

        *** GPGPU-Sim Simulator Version 3.2.2  [build gpgpu-sim_git-commit-031156e66de9d631709a7db882a973ad8f0cec52_modified_0] ***


GPGPU-Sim PTX: simulation mode 0 (can change with PTX_SIM_MODE_FUNC environment variable:
               1=functional simulation only, 0=detailed performance simulator)
GPGPU-Sim: Configuration options:

-network_mode                           1 # Interconnection network mode
-inter_config_file   config_fermi_islip.icnt # Interconnection network config file
-gpgpu_ptx_use_cuobjdump                    1 # Use cuobjdump to extract ptx and sass from binaries
-gpgpu_experimental_lib_support                    0 # Try to extract code from cuda libraries [Broken because of unknown cudaGetExportTable]
-gpgpu_ptx_convert_to_ptxplus                    0 # Convert SASS (native ISA) to ptxplus and run ptxplus
-gpgpu_ptx_force_max_capability                   20 # Force maximum compute capability
-gpgpu_ptx_inst_debug_to_file                    0 # Dump executed instructions' debug information to file
-gpgpu_ptx_inst_debug_file       inst_debug.txt # Executed instructions' debug output file
-gpgpu_ptx_inst_debug_thread_uid                    1 # Thread UID for executed instructions' debug output
-gpgpu_simd_model                       1 # 1 = post-dominator
-gpgpu_shader_core_pipeline              2048:32 # shader core pipeline config, i.e., {<nthread>:<warpsize>}
-gpgpu_tex_cache:l1  16:128:24,L:R:m:N:L,F:128:4,128:2 # per-shader L1 texture cache  (READ-ONLY) config  {<nsets>:<bsize>:<assoc>,<rep>:<wr>:<alloc>:<wr_alloc>,<mshr>:<N>:<merge>,<mq>:<rf>}
-gpgpu_const_cache:l1 128:64:2,L:R:f:N:L,A:2:64,4 # per-shader L1 constant memory cache  (READ-ONLY) config  {<nsets>:<bsize>:<assoc>,<rep>:<wr>:<alloc>:<wr_alloc>,<mshr>:<N>:<merge>,<mq>} 
-gpgpu_cache:il1     8:128:4,L:R:f:N:L,A:2:48,4 # shader L1 instruction cache config  {<nsets>:<bsize>:<assoc>,<rep>:<wr>:<alloc>:<wr_alloc>,<mshr>:<N>:<merge>,<mq>} 
-gpgpu_cache:dl1     64:128:6,L:L:m:N:H,A:128:8,8 # per-shader L1 data cache config  {<nsets>:<bsize>:<assoc>,<rep>:<wr>:<alloc>:<wr_alloc>,<mshr>:<N>:<merge>,<mq> | none}
-gpgpu_cache:dl1PrefL1                 none # per-shader L1 data cache config  {<nsets>:<bsize>:<assoc>,<rep>:<wr>:<alloc>:<wr_alloc>,<mshr>:<N>:<merge>,<mq> | none}
-gpgpu_cache:dl1PrefShared                 none # per-shader L1 data cache config  {<nsets>:<bsize>:<assoc>,<rep>:<wr>:<alloc>:<wr_alloc>,<mshr>:<N>:<merge>,<mq> | none}
-gmem_skip_L1D                          1 # global memory access skip L1D cache (implements -Xptxas -dlcm=cg, default=no skip)
-gpgpu_perfect_mem                      0 # enable perfect memory mode (no cache miss)
-n_regfile_gating_group                    4 # group of lanes that should be read/written together)
-gpgpu_clock_gated_reg_file                    0 # enable clock gated reg file for power calculations
-gpgpu_clock_gated_lanes                    0 # enable clock gated lanes for power calculations
-gpgpu_shader_registers                65536 # Number of registers per shader core. Limits number of concurrent CTAs. (default 8192)
-gpgpu_shader_cta                      32 # Maximum number of concurrent CTAs in shader (default 8)
-gpgpu_num_cta_barriers                   16 # Maximum number of named barriers per CTA (default 16)
-gpgpu_n_clusters                      28 # number of processing clusters
-gpgpu_n_cores_per_cluster                    1 # number of simd cores per cluster
-gpgpu_n_cluster_ejection_buffer_size                    8 # number of packets in ejection buffer
-gpgpu_n_ldst_response_buffer_size                    2 # number of response packets in ld/st unit ejection buffer
-gpgpu_shmem_size                   16384 # Size of shared memory per shader core (default 16kB)
-gpgpu_shmem_size                   98304 # Size of shared memory per shader core (default 16kB)
-gpgpu_shmem_size_PrefL1                16384 # Size of shared memory per shader core (default 16kB)
-gpgpu_shmem_size_PrefShared                16384 # Size of shared memory per shader core (default 16kB)
-gpgpu_shmem_num_banks                   32 # Number of banks in the shared memory in each shader core (default 16)
-gpgpu_shmem_limited_broadcast                    0 # Limit shared memory to do one broadcast per cycle (default on)
-gpgpu_shmem_warp_parts                    1 # Number of portions a warp is divided into for shared memory bank conflict check 
-gpgpu_warpdistro_shader                   -1 # Specify which shader core to collect the warp size distribution from
-gpgpu_warp_issue_shader                    0 # Specify which shader core to collect the warp issue distribution from
-gpgpu_local_mem_map                    1 # Mapping from local memory space address to simulated GPU physical address space (default = enabled)
-gpgpu_num_reg_banks                   32 # Number of register banks (default = 8)
-gpgpu_reg_bank_use_warp_id                    0 # Use warp ID in mapping registers to banks (default = off)
-gpgpu_operand_collector_num_units_sp                   20 # number of collector units (default = 4)
-gpgpu_operand_collector_num_units_sfu                    4 # number of collector units (default = 4)
-gpgpu_operand_collector_num_units_mem                    8 # number of collector units (default = 2)
-gpgpu_operand_collector_num_units_gen                    0 # number of collector units (default = 0)
-gpgpu_operand_collector_num_in_ports_sp                    4 # number of collector unit in ports (default = 1)
-gpgpu_operand_collector_num_in_ports_sfu                    1 # number of collector unit in ports (default = 1)
-gpgpu_operand_collector_num_in_ports_mem                    1 # number of collector unit in ports (default = 1)
-gpgpu_operand_collector_num_in_ports_gen                    0 # number of collector unit in ports (default = 0)
-gpgpu_operand_collector_num_out_ports_sp                    4 # number of collector unit in ports (default = 1)
-gpgpu_operand_collector_num_out_ports_sfu                    1 # number of collector unit in ports (default = 1)
-gpgpu_operand_collector_num_out_ports_mem                    1 # number of collector unit in ports (default = 1)
-gpgpu_operand_collector_num_out_ports_gen                    0 # number of collector unit in ports (default = 0)
-gpgpu_coalesce_arch                   13 # Coalescing arch (default = 13, anything else is off for now)
-gpgpu_num_sched_per_core                    2 # Number of warp schedulers per core
-gpgpu_max_insn_issue_per_warp                    2 # Max number of instructions that can be issued per warp in one cycle by scheduler
-gpgpu_simt_core_sim_order                    1 # Select the simulation order of cores in a cluster (0=Fix, 1=Round-Robin)
-gpgpu_pipeline_widths        4,1,1,4,1,1,6 # Pipeline widths ID_OC_SP,ID_OC_SFU,ID_OC_MEM,OC_EX_SP,OC_EX_SFU,OC_EX_MEM,EX_WB
-gpgpu_num_sp_units                     4 # Number of SP units (default=1)
-gpgpu_num_sfu_units                    1 # Number of SF units (default=1)
-gpgpu_num_mem_units                    1 # Number if ldst units (default=1) WARNING: not hooked up to anything
-gpgpu_scheduler                      gto # Scheduler configuration: < lrr | gto | two_level_active > If two_level_active:<num_active_warps>:<inner_prioritization>:<outer_prioritization>For complete list of prioritization values see shader.h enum scheduler_prioritization_typeDefault: gto
-gpgpu_concurrent_kernel_sm                    0 # Support concurrent kernels on a SM (default = disabled)
-tlb_size                            4096 # Number of tlb entries per SM.
-gpgpu_dram_scheduler                    1 # 0 = fifo, 1 = FR-FCFS (defaul)
-gpgpu_dram_partition_queues              8:8:8:8 # i2$:$2d:d2$:$2i
-l2_ideal                               0 # Use a ideal L2 cache that always hit
-gpgpu_cache:dl2     64:128:16,L:B:m:W:L,A:1024:1024,4:0,32 # unified banked L2 data cache config  {<nsets>:<bsize>:<assoc>,<rep>:<wr>:<alloc>:<wr_alloc>,<mshr>:<N>:<merge>,<mq>}
-gpgpu_cache:dl2_texture_only                    0 # L2 cache used for texture only
-gpgpu_n_mem                           11 # number of memory modules (e.g. memory controllers) in gpu
-gpgpu_n_sub_partition_per_mchannel                    2 # number of memory subpartition in each memory module
-gpgpu_n_mem_per_ctrlr                    1 # number of memory chips per memory controller
-gpgpu_memlatency_stat                   14 # track and display latency statistics 0x2 enables MC, 0x4 enables queue logs
-gpgpu_frfcfs_dram_sched_queue_size                   64 # 0 = unlimited (default); # entries per chip
-gpgpu_dram_return_queue_size                  116 # 0 = unlimited (default); # entries per chip
-gpgpu_dram_buswidth                    4 # default = 4 bytes (8 bytes per cycle at DDR)
-gpgpu_dram_burst_length                    8 # Burst length of each DRAM request (default = 4 data bus cycle)
-dram_data_command_freq_ratio                    4 # Frequency ratio between DRAM data bus and command bus (default = 2 times, i.e. DDR)
-gpgpu_dram_timing_opt nbk=16:CCD=2:RRD=6:RCD=12:RAS=28:RP=12:RC=40: CL=12:WL=4:CDLR=5:WR=12:nbkgrp=1:CCDL=0:RTPL=0 # DRAM timing parameters = {nbk:tCCD:tRRD:tRCD:tRAS:tRP:tRC:CL:WL:tCDLR:tWR:nbkgrp:tCCDL:tRTPL}
-rop_latency                          120 # ROP queue latency (default 85)
-dram_latency                         100 # DRAM latency (default 30)
-gpgpu_mem_addr_mapping dramid@8;00000000.00000000.00000000.00000000.0000RRRR.RRRRRRRR.RBBBCCCC.BCCSSSSS # mapping memory address to dram model {dramid@<start bit>;<memory address map>}
-gpgpu_mem_addr_test                    0 # run sweep test to check address mapping for aliased address
-gpgpu_mem_address_mask                    1 # 0 = old addressing mask, 1 = new addressing mask, 2 = new add. mask + flipped bank sel and chip sel bits
-gpuwattch_xml_file  gpuwattch_geforcegtx1080ti.xml # GPUWattch XML file
-power_simulation_enabled                    1 # Turn on power simulator (1=On, 0=Off)
-power_per_cycle_dump                    0 # Dump detailed power output each cycle
-power_trace_enabled                    0 # produce a file for the power trace (1=On, 0=Off)
-power_trace_zlevel                     6 # Compression level of the power trace output log (0=no comp, 9=highest)
-steady_power_levels_enabled                    0 # produce a file for the steady power levels (1=On, 0=Off)
-steady_state_definition                  8:4 # allowed deviation:number of samples
-gpgpu_max_cycle                        0 # terminates gpu simulation early (0 = no limit)
-gpgpu_max_insn                         0 # terminates gpu simulation early (0 = no limit)
-gpgpu_max_cta                          0 # terminates gpu simulation early (0 = no limit)
-gpgpu_runtime_stat                   500 # display runtime statistics such as dram utilization {<freq>:<flag>}
-liveness_message_freq                    1 # Minimum number of seconds between simulation liveness messages (0 = always print)
-gpgpu_flush_l1_cache                    0 # Flush L1 cache at the end of each kernel call
-gpgpu_flush_l2_cache                    0 # Flush L2 cache at the end of each kernel call
-gpgpu_deadlock_detect                    0 # Stop the simulation at deadlock (1=on (default), 0=off)
-gpgpu_ptx_instruction_classification                    0 # if enabled will classify ptx instruction types per kernel (Max 255 kernels now)
-gpgpu_ptx_sim_mode                     0 # Select between Performance (default) or Functional simulation (1)
-gpgpu_clock_domains 1481.0:2962.0:1481.0:2750.0 # Clock Domain Frequencies in MhZ {<Core Clock>:<ICNT Clock>:<L2 Clock>:<DRAM Clock>}
-gpgpu_max_concurrent_kernel                    8 # maximum kernels that can run concurrently on GPU
-gpgpu_cflog_interval                    0 # Interval between each snapshot in control flow logger
-visualizer_enabled                     0 # Turn on visualizer output (1=On, 0=Off)
-visualizer_outputfile                 NULL # Specifies the output log file for visualizer
-visualizer_zlevel                      6 # Compression level of the visualizer output log (0=no comp, 9=highest)
-trace_enabled                          0 # Turn on traces
-trace_components                    none # comma seperated list of traces to enable. Complete list found in trace_streams.tup. Default none
-trace_sampling_core                    0 # The core which is printed using CORE_DPRINTF. Default 0
-trace_sampling_memory_partition                   -1 # The memory partition which is printed using MEMPART_DPRINTF. Default -1 (i.e. all)
-gddr_size                       2.0599MB # Size of GDDR in MB/GB.(GLOBAL_HEAP_START, GLOBAL_HEAP_START + gddr_size) would be used for unmanged memory, (GLOBAL_HEAP_START + gddr_size, GLOBAL_HEAP_START + gddr_size*2) would be used for managed memory. 
-page_table_walk_latency                  100 # Average page table walk latency (in core cycle).
-eviction_policy                        0 # Select page eviction policy
-reserve_accessed_page_percent                    0 # Percentage of accessed pages reserved from eviction in hope that they will be accessed in next iteration.
-percentage_of_free_page_buffer                    0 # Percentage of free page buffer to trigger the page eviction.
-page_size                            4KB # GDDR page size, only 4KB/2MB avaliable.
-pcie_bandwidth                  16.0GB/s # PCI-e bandwidth per direction, in GB/s.
-enable_nvlink                          0 # Enable nvlink 2.0, 150.0GB/s
-enable_rdma                            0 # Enable remote direct memory access
-migrate_threshold                     10 # Access counter threshold for migrating the page from cpu to gpu
-sim_prof_enable                        1 # Enable gpgpu-sim profiler
-hardware_prefetch                      1 # Select gpgpu-sim hardware prefetcher
-hwprefetch_oversub                     0 # Select gpgpu-sim hardware prefetcher under over-subscription
-page_fault_latency                 66645 # Average fault latency (in core cycle).
-enable_accurate_simulation                    0 # Enable page fault functional simulation.
-enable_ptx_file_line_stats                    1 # Turn on PTX source line statistic profiling. (1 = On)
-ptx_line_stats_filename gpgpu_inst_stats.txt # Output file for PTX source line statistics.
-gpgpu_kernel_launch_latency               222150 # Kernel launch latency in cycles. Default: 0
-gpgpu_cdp_enabled                      0 # Turn on CDP
-save_embedded_ptx                      0 # saves ptx files embedded in binary as <n>.ptx
-keep                                   0 # keep intermediate files created by GPGPU-Sim when interfacing with external programs
-gpgpu_ptx_save_converted_ptxplus                    0 # Saved converted ptxplus to a file
-ptx_opcode_latency_int         4,13,4,5,145 # Opcode latencies for integers <ADD,MAX,MUL,MAD,DIV>Default 1,1,19,25,145
-ptx_opcode_latency_fp          4,13,4,5,39 # Opcode latencies for single precision floating points <ADD,MAX,MUL,MAD,DIV>Default 1,1,1,1,30
-ptx_opcode_latency_dp         8,19,8,8,330 # Opcode latencies for double precision floating points <ADD,MAX,MUL,MAD,DIV>Default 8,8,8,8,335
-ptx_opcode_initiation_int            1,2,2,2,8 # Opcode initiation intervals for integers <ADD,MAX,MUL,MAD,DIV>Default 1,1,4,4,32
-ptx_opcode_initiation_fp            1,2,1,1,4 # Opcode initiation intervals for single precision floating points <ADD,MAX,MUL,MAD,DIV>Default 1,1,1,1,5
-ptx_opcode_initiation_dp          1,2,1,1,130 # Opcode initiation intervals for double precision floating points <ADD,MAX,MUL,MAD,DIV>Default 8,8,8,8,130
-cdp_latency         7200,8000,100,12000,1600 # CDP API latency <cudaStreamCreateWithFlags, cudaGetParameterBufferV2_init_perWarp, cudaGetParameterBufferV2_perKernel, cudaLaunchDeviceV2_init_perWarp, cudaLaunchDevicV2_perKernel>Default 7200,8000,100,12000,1600
DRAM Timing Options:
nbk                                    16 # number of banks
CCD                                     2 # column to column delay
RRD                                     6 # minimal delay between activation of rows in different banks
RCD                                    12 # row to column delay
RAS                                    28 # time needed to activate row
RP                                     12 # time needed to precharge (deactivate) row
RC                                     40 # row cycle time
CDLR                                    5 # switching from write to read (changes tWTR)
WR                                     12 # last data-in to row precharge
CL                                     12 # CAS latency
WL                                      4 # Write latency
nbkgrp                                  1 # number of bank groups
CCDL                                    0 # column to column delay between accesses to different bank groups
RTPL                                    0 # read to precharge delay between accesses to different bank groups
Total number of memory sub partition = 22
addr_dec_mask[CHIP]  = 0000000000000000 	high:64 low:0
addr_dec_mask[BK]    = 0000000000007080 	high:15 low:7
addr_dec_mask[ROW]   = 000000000fff8000 	high:28 low:15
addr_dec_mask[COL]   = 0000000000000f7f 	high:12 low:0
addr_dec_mask[BURST] = 000000000000001f 	high:5 low:0
sub_partition_id_mask = 0000000000000080
GPGPU-Sim uArch: clock freqs: 1481000000.000000:2962000000.000000:1481000000.000000:2750000000.000000
GPGPU-Sim uArch: clock periods: 0.00000000067521944632:0.00000000033760972316:0.00000000067521944632:0.00000000036363636364
*** Initializing Memory Statistics ***
GPGPU-Sim uArch: interconnect node map (shaderID+MemID to icntID)
GPGPU-Sim uArch: Memory nodes ID start from index: 28
GPGPU-Sim uArch:    0   1   2   3   4   5   6
GPGPU-Sim uArch:    7   8   9  10  11  12  13
GPGPU-Sim uArch:   14  15  16  17  18  19  20
GPGPU-Sim uArch:   21  22  23  24  25  26  27
GPGPU-Sim uArch:   28  29  30  31  32  33  34
GPGPU-Sim uArch:   35  36  37  38  39  40  41
GPGPU-Sim uArch:   42  43  44  45  46  47  48
GPGPU-Sim uArch:   49
GPGPU-Sim uArch: interconnect node reverse map (icntID to shaderID+MemID)
GPGPU-Sim uArch: Memory nodes start from ID: 28
GPGPU-Sim uArch:    0   1   2   3   4   5   6
GPGPU-Sim uArch:    7   8   9  10  11  12  13
GPGPU-Sim uArch:   14  15  16  17  18  19  20
GPGPU-Sim uArch:   21  22  23  24  25  26  27
GPGPU-Sim uArch:   28  29  30  31  32  33  34
GPGPU-Sim uArch:   35  36  37  38  39  40  41
GPGPU-Sim uArch:   42  43  44  45  46  47  48
GPGPU-Sim uArch:   49
f8e9dd553a5b2cb4d1d1565df99196f2  /home/gpuser/Desktop/gpgpu-sim_UVMSmart/benchmarks/Managed/backprop/backprop
GPGPU-Sim uArch: performance model initialization complete.
GPGPU-Sim PTX: __cudaRegisterFatBinary, fat_cubin_handle = 1, filename=default
self exe links to: /home/gpuser/Desktop/gpgpu-sim_UVMSmart/benchmarks/Managed/backprop/backprop
Running md5sum using "md5sum /home/gpuser/Desktop/gpgpu-sim_UVMSmart/benchmarks/Managed/backprop/backprop "
Parsing file _cuobjdump_complete_output_Wl88bh
######### cuobjdump parser ########
## Adding new section ELF
Adding arch: sm_20
Adding identifier: default
## Adding new section ELF
Adding arch: sm_20
Adding identifier: default
## Adding new section PTX
Adding ptx filename: _cuobjdump_1.ptx
Adding arch: sm_20
Adding identifier: default
Done parsing!!!
GPGPU-Sim PTX: __cudaRegisterFunction _Z24bpnn_adjust_weights_cudaPfiS_iS_S_ : hostFun 0x0x402d5b, fat_cubin_handle = 1
GPGPU-Sim PTX: allocating shared region for "_Z22bpnn_layerforward_CUDAPfS_S_S_ii$__cuda_local_var_17900_34_non_const_input_node" from 0x0 to 0x40 (shared memory space)
GPGPU-Sim PTX: allocating shared region for "_Z22bpnn_layerforward_CUDAPfS_S_S_ii$__cuda_local_var_17901_34_non_const_weight_matrix" from 0x80 to 0x480 (shared memory space)
GPGPU-Sim PTX: instruction assembly for function '_Z22bpnn_layerforward_CUDAPfS_S_S_ii'...   done.
GPGPU-Sim PTX: finding reconvergence points for '_Z22bpnn_layerforward_CUDAPfS_S_S_ii'...
GPGPU-Sim PTX: Finding dominators for '_Z22bpnn_layerforward_CUDAPfS_S_S_ii'...
GPGPU-Sim PTX: Finding immediate dominators for '_Z22bpnn_layerforward_CUDAPfS_S_S_ii'...
GPGPU-Sim PTX: Finding postdominators for '_Z22bpnn_layerforward_CUDAPfS_S_S_ii'...
GPGPU-Sim PTX: Finding immediate postdominators for '_Z22bpnn_layerforward_CUDAPfS_S_S_ii'...
GPGPU-Sim PTX: pre-decoding instructions for '_Z22bpnn_layerforward_CUDAPfS_S_S_ii'...
GPGPU-Sim PTX: reconvergence points for _Z22bpnn_layerforward_CUDAPfS_S_S_ii...
GPGPU-Sim PTX:  1 (potential) branch divergence @  PC=0x068 (_1.ptx:47) @%p2 bra BB0_2;
GPGPU-Sim PTX:    immediate post dominator      @  PC=0x0a0 (_1.ptx:57) cvta.to.global.u64 %rd3, %rd8;
GPGPU-Sim PTX:  2 (potential) branch divergence @  PC=0x168 (_1.ptx:82) @%p3 bra BB0_7;
GPGPU-Sim PTX:    immediate post dominator      @  PC=0x250 (_1.ptx:119) setp.eq.s32%p1, %r3, 0;
GPGPU-Sim PTX:  3 (potential) branch divergence @  PC=0x1c8 (_1.ptx:97) @%p4 bra BB0_6;
GPGPU-Sim PTX:    immediate post dominator      @  PC=0x228 (_1.ptx:112) bar.sync 0;
GPGPU-Sim PTX:  4 (potential) branch divergence @  PC=0x248 (_1.ptx:116) @%p5 bra BB0_4;
GPGPU-Sim PTX:    immediate post dominator      @  PC=0x250 (_1.ptx:119) setp.eq.s32%p1, %r3, 0;
GPGPU-Sim PTX:  5 (potential) branch divergence @  PC=0x270 (_1.ptx:123) @!%p1 bra BB0_9;
GPGPU-Sim PTX:    immediate post dominator      @  PC=0x2c8 (_1.ptx:138) ret;
GPGPU-Sim PTX:  6 (potential) branch divergence @  PC=0x278 (_1.ptx:124) bra.uni BB0_8;
GPGPU-Sim PTX:    immediate post dominator      @  PC=0x280 (_1.ptx:127) cvt.u32.u64%r20, %rd1;
GPGPU-Sim PTX: ... end of reconvergence points for _Z22bpnn_layerforward_CUDAPfS_S_S_ii
GPGPU-Sim PTX: ... done pre-decoding instructions for '_Z22bpnn_layerforward_CUDAPfS_S_S_ii'.
GPGPU-Sim PTX: instruction assembly for function '_Z24bpnn_adjust_weights_cudaPfiS_iS_S_'...   done.
GPGPU-Sim PTX: finding reconvergence points for '_Z24bpnn_adjust_weights_cudaPfiS_iS_S_'...
GPGPU-Sim PTX: Finding dominators for '_Z24bpnn_adjust_weights_cudaPfiS_iS_S_'...
GPGPU-Sim PTX: Finding immediate dominators for '_Z24bpnn_adjust_weights_cudaPfiS_iS_S_'...
GPGPU-Sim PTX: Finding postdominators for '_Z24bpnn_adjust_weights_cudaPfiS_iS_S_'...
GPGPU-Sim PTX: Finding immediate postdominators for '_Z24bpnn_adjust_weights_cudaPfiS_iS_S_'...
GPGPU-Sim PTX: pre-decoding instructions for '_Z24bpnn_adjust_weights_cudaPfiS_iS_S_'...
GPGPU-Sim PTX: reconvergence points for _Z24bpnn_adjust_weights_cudaPfiS_iS_S_...
GPGPU-Sim PTX:  1 (potential) branch divergence @  PC=0x470 (_1.ptx:210) @%p1 bra BB1_2;
GPGPU-Sim PTX:    immediate post dominator      @  PC=0x530 (_1.ptx:237) ret;
GPGPU-Sim PTX: ... end of reconvergence points for _Z24bpnn_adjust_weights_cudaPfiS_iS_S_
GPGPU-Sim PTX: ... done pre-decoding instructions for '_Z24bpnn_adjust_weights_cudaPfiS_iS_S_'.
GPGPU-Sim PTX: finished parsing EMBEDDED .ptx file _1.ptx
Adding _cuobjdump_1.ptx with cubin handle 1
GPGPU-Sim PTX: extracting embedded .ptx to temporary file "_ptx_CEDM36"
Running: cat _ptx_CEDM36 | sed 's/.version 1.5/.version 1.4/' | sed 's/, texmode_independent//' | sed 's/\(\.extern \.const\[1\] .b8 \w\+\)\[\]/\1\[1\]/' | sed 's/const\[.\]/const\[0\]/g' > _ptx2_sajrVW
GPGPU-Sim PTX: generating ptxinfo using "$CUDA_INSTALL_PATH/bin/ptxas --gpu-name=sm_20 -v _ptx2_sajrVW --output-file  /dev/null 2> _ptx_CEDM36info"
GPGPU-Sim PTX: Kernel '_Z24bpnn_adjust_weights_cudaPfiS_iS_S_' : regs=22, lmem=0, smem=0, cmem=80
GPGPU-Sim PTX: Kernel '_Z22bpnn_layerforward_CUDAPfS_S_S_ii' : regs=11, lmem=0, smem=1088, cmem=72
GPGPU-Sim PTX: removing ptxinfo using "rm -f _ptx_CEDM36 _ptx2_sajrVW _ptx_CEDM36info"
GPGPU-Sim PTX: loading globals with explicit initializers... 
GPGPU-Sim PTX: finished loading globals (0 bytes total).
GPGPU-Sim PTX: loading constants with explicit initializers...  done.
GPGPU-Sim PTX: __cudaRegisterFunction _Z22bpnn_layerforward_CUDAPfS_S_S_ii : hostFun 0x0x402c0a, fat_cubin_handle = 1
Random number generator seed: 7
cudaMallocManaged called
cudaMallocManaged called
cudaMallocManaged called
cudaMallocManaged called
cudaMallocManaged called
cudaMallocManaged called
cudaMallocManaged called
cudaMallocManaged called
cudaMallocManaged called
cudaMallocManaged called
cudaMallocManaged called
Input layer size : 18000
Starting training kernel
Performing GPU computation

GPGPU-Sim PTX: cudaLaunch for 0x0x402c0a (mode=performance simulation) on stream 0
GPGPU-Sim PTX: pushing kernel '_Z22bpnn_layerforward_CUDAPfS_S_S_ii' to stream 0, gridDim= (1,1125,1) blockDim = (16,16,1) 
GPGPU-Sim uArch: Shader 1 bind to kernel 1 '_Z22bpnn_layerforward_CUDAPfS_S_S_ii'
GPGPU-Sim uArch: CTA/core = 8, limited by: threads
GPGPU-Sim uArch: Shader 2 bind to kernel 1 '_Z22bpnn_layerforward_CUDAPfS_S_S_ii'
GPGPU-Sim uArch: Shader 3 bind to kernel 1 '_Z22bpnn_layerforward_CUDAPfS_S_S_ii'
GPGPU-Sim uArch: Shader 4 bind to kernel 1 '_Z22bpnn_layerforward_CUDAPfS_S_S_ii'
GPGPU-Sim uArch: Shader 5 bind to kernel 1 '_Z22bpnn_layerforward_CUDAPfS_S_S_ii'
GPGPU-Sim uArch: Shader 6 bind to kernel 1 '_Z22bpnn_layerforward_CUDAPfS_S_S_ii'
GPGPU-Sim uArch: Shader 7 bind to kernel 1 '_Z22bpnn_layerforward_CUDAPfS_S_S_ii'
GPGPU-Sim uArch: Shader 8 bind to kernel 1 '_Z22bpnn_layerforward_CUDAPfS_S_S_ii'
GPGPU-Sim uArch: Shader 9 bind to kernel 1 '_Z22bpnn_layerforward_CUDAPfS_S_S_ii'
GPGPU-Sim uArch: Shader 10 bind to kernel 1 '_Z22bpnn_layerforward_CUDAPfS_S_S_ii'
GPGPU-Sim uArch: Shader 11 bind to kernel 1 '_Z22bpnn_layerforward_CUDAPfS_S_S_ii'
GPGPU-Sim uArch: Shader 12 bind to kernel 1 '_Z22bpnn_layerforward_CUDAPfS_S_S_ii'
GPGPU-Sim uArch: Shader 13 bind to kernel 1 '_Z22bpnn_layerforward_CUDAPfS_S_S_ii'
GPGPU-Sim uArch: Shader 14 bind to kernel 1 '_Z22bpnn_layerforward_CUDAPfS_S_S_ii'
GPGPU-Sim uArch: Shader 15 bind to kernel 1 '_Z22bpnn_layerforward_CUDAPfS_S_S_ii'
GPGPU-Sim uArch: Shader 16 bind to kernel 1 '_Z22bpnn_layerforward_CUDAPfS_S_S_ii'
GPGPU-Sim uArch: Shader 17 bind to kernel 1 '_Z22bpnn_layerforward_CUDAPfS_S_S_ii'
GPGPU-Sim uArch: Shader 18 bind to kernel 1 '_Z22bpnn_layerforward_CUDAPfS_S_S_ii'
GPGPU-Sim uArch: Shader 19 bind to kernel 1 '_Z22bpnn_layerforward_CUDAPfS_S_S_ii'
GPGPU-Sim uArch: Shader 20 bind to kernel 1 '_Z22bpnn_layerforward_CUDAPfS_S_S_ii'
GPGPU-Sim uArch: Shader 21 bind to kernel 1 '_Z22bpnn_layerforward_CUDAPfS_S_S_ii'
GPGPU-Sim uArch: Shader 22 bind to kernel 1 '_Z22bpnn_layerforward_CUDAPfS_S_S_ii'
GPGPU-Sim uArch: Shader 23 bind to kernel 1 '_Z22bpnn_layerforward_CUDAPfS_S_S_ii'
GPGPU-Sim uArch: Shader 24 bind to kernel 1 '_Z22bpnn_layerforward_CUDAPfS_S_S_ii'
GPGPU-Sim uArch: Shader 25 bind to kernel 1 '_Z22bpnn_layerforward_CUDAPfS_S_S_ii'
GPGPU-Sim uArch: Shader 26 bind to kernel 1 '_Z22bpnn_layerforward_CUDAPfS_S_S_ii'
GPGPU-Sim uArch: Shader 27 bind to kernel 1 '_Z22bpnn_layerforward_CUDAPfS_S_S_ii'
GPGPU-Sim uArch: Shader 0 bind to kernel 1 '_Z22bpnn_layerforward_CUDAPfS_S_S_ii'
Destroy streams for kernel 1: size 0
kernel_name = _Z22bpnn_layerforward_CUDAPfS_S_S_ii 
kernel_launch_uid = 1 
gpu_sim_cycle = 383081
gpu_sim_insn = 30888000
gpu_ipc =      80.6305
gpu_tot_sim_cycle = 605231
gpu_tot_sim_insn = 30888000
gpu_tot_ipc =      51.0351
gpu_tot_issued_cta = 1125
max_total_param_size = 0
gpu_stall_dramfull = 1136
gpu_stall_icnt2sh    = 62173
partiton_reqs_in_parallel = 8426646
partiton_reqs_in_parallel_total    = 0
partiton_level_parallism =      21.9970
partiton_level_parallism_total  =      13.9230
partiton_reqs_in_parallel_util = 8426646
partiton_reqs_in_parallel_util_total    = 0
gpu_sim_cycle_parition_util = 383081
gpu_tot_sim_cycle_parition_util    = 0
partiton_level_parallism_util =      21.9970
partiton_level_parallism_util_total  =      21.9970
partiton_replys_in_parallel = 54758
partiton_replys_in_parallel_total    = 0
L2_BW  =      13.5485 GB/Sec
L2_BW_total  =       8.5755 GB/Sec
gpu_total_sim_rate=29930

========= Core cache stats =========
L1I_cache:
	L1I_total_cache_accesses = 642375
	L1I_total_cache_misses = 3489
	L1I_total_cache_miss_rate = 0.0054
	L1I_total_cache_pending_hits = 0
	L1I_total_cache_reservation_fails = 6846
L1D_cache:
	L1D_cache_core[0]: Access = 0, Miss = 0, Miss_rate = -nan, Pending_hits = 0, Reservation_fails = 0
	L1D_cache_core[1]: Access = 0, Miss = 0, Miss_rate = -nan, Pending_hits = 0, Reservation_fails = 0
	L1D_cache_core[2]: Access = 0, Miss = 0, Miss_rate = -nan, Pending_hits = 0, Reservation_fails = 0
	L1D_cache_core[3]: Access = 0, Miss = 0, Miss_rate = -nan, Pending_hits = 0, Reservation_fails = 0
	L1D_cache_core[4]: Access = 0, Miss = 0, Miss_rate = -nan, Pending_hits = 0, Reservation_fails = 0
	L1D_cache_core[5]: Access = 0, Miss = 0, Miss_rate = -nan, Pending_hits = 0, Reservation_fails = 0
	L1D_cache_core[6]: Access = 0, Miss = 0, Miss_rate = -nan, Pending_hits = 0, Reservation_fails = 0
	L1D_cache_core[7]: Access = 0, Miss = 0, Miss_rate = -nan, Pending_hits = 0, Reservation_fails = 0
	L1D_cache_core[8]: Access = 0, Miss = 0, Miss_rate = -nan, Pending_hits = 0, Reservation_fails = 0
	L1D_cache_core[9]: Access = 0, Miss = 0, Miss_rate = -nan, Pending_hits = 0, Reservation_fails = 0
	L1D_cache_core[10]: Access = 0, Miss = 0, Miss_rate = -nan, Pending_hits = 0, Reservation_fails = 0
	L1D_cache_core[11]: Access = 0, Miss = 0, Miss_rate = -nan, Pending_hits = 0, Reservation_fails = 0
	L1D_cache_core[12]: Access = 0, Miss = 0, Miss_rate = -nan, Pending_hits = 0, Reservation_fails = 0
	L1D_cache_core[13]: Access = 0, Miss = 0, Miss_rate = -nan, Pending_hits = 0, Reservation_fails = 0
	L1D_cache_core[14]: Access = 0, Miss = 0, Miss_rate = -nan, Pending_hits = 0, Reservation_fails = 0
	L1D_cache_core[15]: Access = 0, Miss = 0, Miss_rate = -nan, Pending_hits = 0, Reservation_fails = 0
	L1D_cache_core[16]: Access = 0, Miss = 0, Miss_rate = -nan, Pending_hits = 0, Reservation_fails = 0
	L1D_cache_core[17]: Access = 0, Miss = 0, Miss_rate = -nan, Pending_hits = 0, Reservation_fails = 0
	L1D_cache_core[18]: Access = 0, Miss = 0, Miss_rate = -nan, Pending_hits = 0, Reservation_fails = 0
	L1D_cache_core[19]: Access = 0, Miss = 0, Miss_rate = -nan, Pending_hits = 0, Reservation_fails = 0
	L1D_cache_core[20]: Access = 0, Miss = 0, Miss_rate = -nan, Pending_hits = 0, Reservation_fails = 0
	L1D_cache_core[21]: Access = 0, Miss = 0, Miss_rate = -nan, Pending_hits = 0, Reservation_fails = 0
	L1D_cache_core[22]: Access = 0, Miss = 0, Miss_rate = -nan, Pending_hits = 0, Reservation_fails = 0
	L1D_cache_core[23]: Access = 0, Miss = 0, Miss_rate = -nan, Pending_hits = 0, Reservation_fails = 0
	L1D_cache_core[24]: Access = 0, Miss = 0, Miss_rate = -nan, Pending_hits = 0, Reservation_fails = 0
	L1D_cache_core[25]: Access = 0, Miss = 0, Miss_rate = -nan, Pending_hits = 0, Reservation_fails = 0
	L1D_cache_core[26]: Access = 0, Miss = 0, Miss_rate = -nan, Pending_hits = 0, Reservation_fails = 0
	L1D_cache_core[27]: Access = 0, Miss = 0, Miss_rate = -nan, Pending_hits = 0, Reservation_fails = 0
	L1D_total_cache_accesses = 0
	L1D_total_cache_misses = 0
	L1D_total_cache_pending_hits = 0
	L1D_total_cache_reservation_fails = 0
	L1D_cache_data_port_util = 0.000
	L1D_cache_fill_port_util = 0.000
L1C_cache:
	L1C_total_cache_accesses = 36000
	L1C_total_cache_misses = 1792
	L1C_total_cache_miss_rate = 0.0498
	L1C_total_cache_pending_hits = 0
	L1C_total_cache_reservation_fails = 4886
L1T_cache:
	L1T_total_cache_accesses = 0
	L1T_total_cache_misses = 0
	L1T_total_cache_pending_hits = 0
	L1T_total_cache_reservation_fails = 0

Total_core_cache_stats:
	Total_core_cache_stats_breakdown[GLOBAL_ACC_R][HIT] = 0
	Total_core_cache_stats_breakdown[GLOBAL_ACC_R][HIT_RESERVED] = 0
	Total_core_cache_stats_breakdown[GLOBAL_ACC_R][MISS] = 0
	Total_core_cache_stats_breakdown[GLOBAL_ACC_R][RESERVATION_FAIL] = 0
	Total_core_cache_stats_breakdown[LOCAL_ACC_R][HIT] = 0
	Total_core_cache_stats_breakdown[LOCAL_ACC_R][HIT_RESERVED] = 0
	Total_core_cache_stats_breakdown[LOCAL_ACC_R][MISS] = 0
	Total_core_cache_stats_breakdown[LOCAL_ACC_R][RESERVATION_FAIL] = 0
	Total_core_cache_stats_breakdown[CONST_ACC_R][HIT] = 34208
	Total_core_cache_stats_breakdown[CONST_ACC_R][HIT_RESERVED] = 0
	Total_core_cache_stats_breakdown[CONST_ACC_R][MISS] = 1792
	Total_core_cache_stats_breakdown[CONST_ACC_R][RESERVATION_FAIL] = 4886
	Total_core_cache_stats_breakdown[TEXTURE_ACC_R][HIT] = 0
	Total_core_cache_stats_breakdown[TEXTURE_ACC_R][HIT_RESERVED] = 0
	Total_core_cache_stats_breakdown[TEXTURE_ACC_R][MISS] = 0
	Total_core_cache_stats_breakdown[TEXTURE_ACC_R][RESERVATION_FAIL] = 0
	Total_core_cache_stats_breakdown[GLOBAL_ACC_W][HIT] = 0
	Total_core_cache_stats_breakdown[GLOBAL_ACC_W][HIT_RESERVED] = 0
	Total_core_cache_stats_breakdown[GLOBAL_ACC_W][MISS] = 0
	Total_core_cache_stats_breakdown[GLOBAL_ACC_W][RESERVATION_FAIL] = 0
	Total_core_cache_stats_breakdown[LOCAL_ACC_W][HIT] = 0
	Total_core_cache_stats_breakdown[LOCAL_ACC_W][HIT_RESERVED] = 0
	Total_core_cache_stats_breakdown[LOCAL_ACC_W][MISS] = 0
	Total_core_cache_stats_breakdown[LOCAL_ACC_W][RESERVATION_FAIL] = 0
	Total_core_cache_stats_breakdown[L1_WRBK_ACC][HIT] = 0
	Total_core_cache_stats_breakdown[L1_WRBK_ACC][HIT_RESERVED] = 0
	Total_core_cache_stats_breakdown[L1_WRBK_ACC][MISS] = 0
	Total_core_cache_stats_breakdown[L1_WRBK_ACC][RESERVATION_FAIL] = 0
	Total_core_cache_stats_breakdown[L2_WRBK_ACC][HIT] = 0
	Total_core_cache_stats_breakdown[L2_WRBK_ACC][HIT_RESERVED] = 0
	Total_core_cache_stats_breakdown[L2_WRBK_ACC][MISS] = 0
	Total_core_cache_stats_breakdown[L2_WRBK_ACC][RESERVATION_FAIL] = 0
	Total_core_cache_stats_breakdown[INST_ACC_R][HIT] = 638886
	Total_core_cache_stats_breakdown[INST_ACC_R][HIT_RESERVED] = 0
	Total_core_cache_stats_breakdown[INST_ACC_R][MISS] = 3489
	Total_core_cache_stats_breakdown[INST_ACC_R][RESERVATION_FAIL] = 6846
	Total_core_cache_stats_breakdown[L1_WR_ALLOC_R][HIT] = 0
	Total_core_cache_stats_breakdown[L1_WR_ALLOC_R][HIT_RESERVED] = 0
	Total_core_cache_stats_breakdown[L1_WR_ALLOC_R][MISS] = 0
	Total_core_cache_stats_breakdown[L1_WR_ALLOC_R][RESERVATION_FAIL] = 0
	Total_core_cache_stats_breakdown[L2_WR_ALLOC_R][HIT] = 0
	Total_core_cache_stats_breakdown[L2_WR_ALLOC_R][HIT_RESERVED] = 0
	Total_core_cache_stats_breakdown[L2_WR_ALLOC_R][MISS] = 0
	Total_core_cache_stats_breakdown[L2_WR_ALLOC_R][RESERVATION_FAIL] = 0
	Total_core_cache_stats_breakdown[CONST_ACC_R][TOTAL_ACCESS] = 36000
	Total_core_cache_stats_breakdown[INST_ACC_R][TOTAL_ACCESS] = 642375
Shader 0 warp_id issue ditsribution:
warp_id:
0, 1, 2, 3, 4, 5, 6, 7, 8, 9, 10, 11, 12, 13, 14, 15, 16, 17, 18, 19, 20, 21, 22, 23, 24, 25, 26, 27, 28, 29, 30, 31, 32, 33, 34, 35, 36, 37, 38, 39, 40, 41, 42, 43, 44, 45, 46, 47, 48, 49, 50, 51, 52, 53, 54, 55, 56, 57, 58, 59, 60, 61, 62, 63, 
distro:
1082, 858, 931, 855, 1010, 856, 938, 863, 1083, 858, 930, 856, 1009, 857, 937, 861, 904, 717, 779, 716, 844, 714, 785, 720, 903, 716, 778, 712, 843, 713, 783, 721, 904, 716, 779, 714, 844, 716, 783, 726, 902, 711, 777, 714, 842, 714, 783, 720, 723, 574, 623, 575, 675, 573, 625, 577, 719, 570, 619, 570, 672, 570, 627, 577, 
gpgpu_n_tot_thrd_icount = 39060000
gpgpu_n_tot_w_icount = 1220625
gpgpu_n_stall_shd_mem = 47946
gpgpu_n_mem_read_local = 0
gpgpu_n_mem_write_local = 0
gpgpu_n_mem_read_global = 27562
gpgpu_n_mem_write_global = 27000
gpgpu_n_mem_texture = 0
gpgpu_n_mem_const = 28
gpgpu_n_load_insn  = 306000
gpgpu_n_store_insn = 306000
gpgpu_n_shmem_insn = 2286000
gpgpu_n_tex_insn = 0
gpgpu_n_const_mem_insn = 0
gpgpu_n_param_mem_insn = 1152000
gpgpu_n_shmem_bkconflict = 0
gpgpu_n_cache_bkconflict = 0
gpgpu_n_intrawarp_mshr_merge = 0
gpgpu_n_cmem_portconflict = 4886
gpgpu_stall_shd_mem[c_mem][bk_conf] = 4886
gpgpu_stall_shd_mem[c_mem][mshr_rc] = 0
gpgpu_stall_shd_mem[c_mem][icnt_rc] = 0
gpgpu_stall_shd_mem[c_mem][data_port_stall] = 0
gpgpu_stall_shd_mem[t_mem][mshr_rc] = 0
gpgpu_stall_shd_mem[t_mem][icnt_rc] = 0
gpgpu_stall_shd_mem[t_mem][data_port_stall] = 0
gpgpu_stall_shd_mem[s_mem][bk_conf] = 0
gpgpu_stall_shd_mem[gl_mem][bk_conf] = 0
gpgpu_stall_shd_mem[gl_mem][coal_stall] = 37372
gpgpu_stall_shd_mem[gl_mem][data_port_stall] = 0
gpgpu_stall_shd_mem[g_mem_ld][mshr_rc] = 0
gpgpu_stall_shd_mem[g_mem_ld][icnt_rc] = 5688
gpgpu_stall_shd_mem[g_mem_ld][wb_icnt_rc] = 0
gpgpu_stall_shd_mem[g_mem_ld][wb_rsrv_fail] = 0
gpgpu_stall_shd_mem[g_mem_st][mshr_rc] = 0
gpgpu_stall_shd_mem[g_mem_st][icnt_rc] = 0
gpgpu_stall_shd_mem[g_mem_st][wb_icnt_rc] = 0
gpgpu_stall_shd_mem[g_mem_st][wb_rsrv_fail] = 0
gpgpu_stall_shd_mem[l_mem_ld][mshr_rc] = 0
gpgpu_stall_shd_mem[l_mem_ld][icnt_rc] = 0
gpgpu_stall_shd_mem[l_mem_ld][wb_icnt_rc] = 0
gpgpu_stall_shd_mem[l_mem_ld][wb_rsrv_fail] = 0
gpgpu_stall_shd_mem[l_mem_st][mshr_rc] = 0
gpgpu_stall_shd_mem[l_mem_st][icnt_rc] = 0
gpgpu_stall_shd_mem[l_mem_ld][wb_icnt_rc] = 0
gpgpu_stall_shd_mem[l_mem_ld][wb_rsrv_fail] = 0
gpu_reg_bank_conflict_stalls = 0
Warp Occupancy Distribution:
Stall:55095	W0_Idle:776885	W0_Scoreboard:19564847	W1:0	W2:144000	W3:0	W4:0	W5:0	W6:0	W7:0	W8:0	W9:0	W10:0	W11:0	W12:0	W13:0	W14:0	W15:0	W16:185625	W17:0	W18:0	W19:0	W20:0	W21:0	W22:0	W23:0	W24:0	W25:0	W26:0	W27:0	W28:0	W29:0	W30:0	W31:0	W32:891000
traffic_breakdown_coretomem[CONST_ACC_R] = 224 {8:28,}
traffic_breakdown_coretomem[GLOBAL_ACC_R] = 220496 {8:27562,}
traffic_breakdown_coretomem[GLOBAL_ACC_W] = 2087968 {40:13501,72:4499,136:9000,}
traffic_breakdown_coretomem[INST_ACC_R] = 1344 {8:168,}
traffic_breakdown_memtocore[CONST_ACC_R] = 2016 {72:28,}
traffic_breakdown_memtocore[GLOBAL_ACC_R] = 2200496 {40:12375,72:5624,136:9563,}
traffic_breakdown_memtocore[GLOBAL_ACC_W] = 216000 {8:27000,}
traffic_breakdown_memtocore[INST_ACC_R] = 22848 {136:168,}
maxmrqlatency = 414 
maxdqlatency = 0 
maxmflatency = 202306 
averagemflatency = 12218 
max_icnt2mem_latency = 201941 
max_icnt2sh_latency = 605230 
mrq_lat_table:6392 	403 	755 	2394 	2357 	1853 	1966 	1659 	718 	0 	0 	0 	0 	0 	0 	0 	0 	0 	0 	0 	0 	0 	0 	0 	0 	0 	0 	0 	0 	0 	0 	0 	
dq_lat_table:0 	0 	0 	0 	0 	0 	0 	0 	0 	0 	0 	0 	0 	0 	0 	0 	0 	0 	0 	0 	0 	0 	0 	0 	0 	0 	0 	0 	0 	0 	0 	0 	
mf_lat_table:0 	0 	0 	0 	0 	0 	0 	24054 	15234 	341 	152 	1379 	360 	2513 	2603 	6601 	0 	1353 	0 	0 	0 	0 	0 	0 	0 	0 	0 	0 	0 	0 	0 	0 	
icnt2mem_lat_table:0 	0 	8224 	16066 	1483 	15 	13388 	621 	0 	0 	276 	1351 	264 	2513 	2603 	6601 	0 	1353 	0 	0 	0 	0 	0 	0 	
icnt2sh_lat_table:0 	0 	5371 	13304 	8214 	700 	1 	0 	0 	0 	0 	0 	0 	0 	0 	0 	0 	2032 	21176 	3792 	0 	0 	0 	0 	
mf_lat_pw_table:0 	0 	0 	0 	0 	0 	0 	42 	14 	0 	0 	7 	2 	3 	7 	5 	0 	1 	0 	0 	0 	0 	0 	0 	0 	0 	0 	0 	0 	0 	0 	0 	
maximum concurrent accesses to same row:
dram[0]:        68        68        78        94        26        34        16        16        16        16        16        16        16        16        16        16 
dram[1]:        68        68        86        70        34        34        16        16        16        16        16        16        16        16        16        16 
dram[2]:        68        68        86        78        26        34        16        16        16        16        16        16        16        16        16        16 
dram[3]:        68        68        78       103        34        34        16        16        16        16        16        16        16        16        16        16 
dram[4]:        68        68       111       103        26        34        16        16        16        16        16        16        16        16        16        16 
dram[5]:        68        68       103       100        26        18        16        16        16        16        16        16        16        16        16        16 
dram[6]:        68        68        90        95        34        26        16        16        16        16        16        16        16        16        16        16 
dram[7]:        85        85       100       111        17        17        16        16        16        16        16        16        16        16        16        16 
dram[8]:        85        85       103       111        17        17        16        16        16        16        16        16        16        16        16        16 
dram[9]:        85        85       116       110        16        17        16        16        16        16        16        16        16        16        16        16 
dram[10]:        85        85        96       114        17        17        16        16        16        16        16        16        16        16        16        16 
maximum service time to same row:
dram[0]:    188637    188609    206485    206384    201625    201548    207138    207138     71347     71346    113845    113841    102329    102329     67128     67129 
dram[1]:    188594    188627    206569    206410    201552    201458    207133    207136     71348     71310    113839    113839    102328    102352     67122     67110 
dram[2]:    188653    188618    206335    206405    201472    201534    207142    207136     71351     71350    113848    113848    102354    102485     67106     67106 
dram[3]:    188641    188645    206376    206603    201300    201386    207132    207124     71350     71349    113846    113836    102485    102483     67112     67101 
dram[4]:    188644    188641    206600    206421    201463    201461    207136    207136     71350     71351    113842    113843    102485    102484     67100     67106 
dram[5]:    188735    188747    206701    206446    201471    201531    207154    207108     71348     71321    113839    113839    102481    102480     67099     67272 
dram[6]:    188746    188744    206666    206659    201426    201419    207109    207101     71286     71260    113841    113843    102447    102450     67192     67088 
dram[7]:    188729    188631    206439    206594    201466    201528    207099    207101     71255     71257    113841    113849    102347    102348     64289     64063 
dram[8]:    188630    188628    206541    206456    201448    201490    207131    207133     71258     71340    113848    113847    102357    102358     64013     63990 
dram[9]:    188627    188629    206593    206626    201407    200849    207127    207096     71343     71390    113852    113831    102356    102357     63992     63962 
dram[10]:    188634    188638    206675    206426    200853    200880    207117    207109     71400     71388    113832    113847    102349    102328     63929     67128 
average row accesses per activate:
dram[0]: 17.714285 17.571428 32.000000 33.333332 26.333334 26.333334 15.750000 15.750000 16.000000 16.000000 16.000000 16.000000  9.166667  9.166667  5.333333  5.333333 
dram[1]: 17.571428 17.571428 32.777779 31.111111 26.333334 26.333334 15.750000 15.750000 16.000000 16.000000 16.000000 16.000000  9.166667  9.166667  5.333333  5.333333 
dram[2]: 17.571428 17.571428 34.666668 33.777779 23.666666 23.500000 15.750000 15.750000 16.000000 16.000000 16.000000 16.000000  9.166667  9.166667  5.333333  5.333333 
dram[3]: 17.571428 17.428572 30.222221 31.111111 24.833334 23.500000 15.750000 15.750000 16.000000 16.000000 16.000000 16.000000  9.166667  9.166667  5.333333  5.333333 
dram[4]: 17.428572 17.428572 33.777779 32.555557 22.166666 24.833334 15.500000 15.500000 16.000000 16.000000 16.000000 16.000000  9.166667  9.166667  5.000000  5.000000 
dram[5]: 17.428572 17.428572 33.111111 31.777779 22.166666 22.166666 15.500000 15.500000 16.000000 16.000000 16.000000 16.000000  9.166667  9.166667  5.000000  5.000000 
dram[6]: 17.428572 17.428572 31.444445 31.555555 23.500000 22.166666 15.500000 15.500000 16.000000 16.000000 16.000000 16.000000  9.166667  9.166667  5.000000  5.000000 
dram[7]: 20.000000 23.333334 30.777779 33.777779 23.500000 22.166666 15.500000 15.500000 16.000000 16.000000 16.000000 16.000000  9.166667  9.166667  5.333333  5.333333 
dram[8]: 23.333334 23.333334 29.444445 27.636364 22.166666 23.500000 15.500000 15.500000 16.000000 16.000000 16.000000 16.000000  9.333333  9.333333  5.333333  5.333333 
dram[9]: 23.333334 23.333334 28.818182 25.363636 20.833334 22.166666 15.500000 15.500000 16.000000 16.000000 16.000000 16.000000  9.333333  9.333333  5.333333  5.333333 
dram[10]: 23.333334 23.333334 33.333332 34.111111 23.500000 23.500000 15.500000 15.500000 16.000000 16.000000 16.000000 16.000000  9.333333  9.333333  5.333333  4.571429 
average row locality = 18497/1107 = 16.709124
number of total memory accesses made:
dram[0]:         0         0         0         0         0         0         0         0         0         0         0         0         0         0         0         0 
dram[1]:         0         0         0         0         0         0         0         0         0         0         0         0         0         0         0         0 
dram[2]:         0         0         0         0         0         0         0         0         0         0         0         0         0         0         0         0 
dram[3]:         0         0         0         0         0         0         0         0         0         0         0         0         0         0         0         0 
dram[4]:         0         0         0         0         0         0         0         0         0         0         0         0         0         0         0         0 
dram[5]:         0         0         0         0         0         0         0         0         0         0         0         0         0         0         0         0 
dram[6]:         0         0         0         0         0         0         0         0         0         0         0         0         0         0         0         0 
dram[7]:         0         0         0         0         0         0         0         0         0         0         0         0         0         0         0         0 
dram[8]:         0         0         0         0         0         0         0         0         0         0         0         0         0         0         0         0 
dram[9]:         0         0         0         0         0         0         0         0         0         0         0         0         0         0         0         0 
dram[10]:         0         0         0         0         0         0         0         0         0         0         0         0         0         0         0         0 
total accesses: 0
min_bank_accesses = 0!
min_chip_accesses = 0!
number of total read accesses:
dram[0]:        60        59        80        80        70        70        63        63        48        48        48        48        55        55        64        64 
dram[1]:        59        59        80        80        70        70        63        63        48        48        48        48        55        55        64        64 
dram[2]:        59        59        80        80        70        69        63        63        48        48        48        48        55        55        64        64 
dram[3]:        59        58        80        80        69        69        63        63        48        48        48        48        55        55        64        64 
dram[4]:        58        58        80        80        69        69        62        62        48        48        48        48        55        55        65        65 
dram[5]:        58        58        80        80        69        69        62        62        48        48        48        48        55        55        65        65 
dram[6]:        58        58        80        80        69        69        62        62        48        48        48        48        55        55        65        65 
dram[7]:        60        60        80        80        69        69        62        62        48        48        48        48        55        55        64        64 
dram[8]:        60        60        80        80        69        69        62        62        48        48        48        48        56        56        64        64 
dram[9]:        60        60        80        80        69        69        62        62        48        48        48        48        56        56        64        64 
dram[10]:        60        60        80        80        69        69        62        62        48        48        48        48        56        56        64        64 
total reads: 10697
bank skew: 80/48 = 1.67
chip skew: 975/970 = 1.01
number of total write accesses:
dram[0]:        64        64       208       220        88        88         0         0         0         0         0         0         0         0         0         0 
dram[1]:        64        64       215       200        88        88         0         0         0         0         0         0         0         0         0         0 
dram[2]:        64        64       232       224        72        72         0         0         0         0         0         0         0         0         0         0 
dram[3]:        64        64       192       200        80        72         0         0         0         0         0         0         0         0         0         0 
dram[4]:        64        64       224       213        64        80         0         0         0         0         0         0         0         0         0         0 
dram[5]:        64        64       218       206        64        64         0         0         0         0         0         0         0         0         0         0 
dram[6]:        64        64       203       204        72        64         0         0         0         0         0         0         0         0         0         0 
dram[7]:        80        80       197       224        72        64         0         0         0         0         0         0         0         0         0         0 
dram[8]:        80        80       185       224        64        72         0         0         0         0         0         0         0         0         0         0 
dram[9]:        80        80       237       199        56        64         0         0         0         0         0         0         0         0         0         0 
dram[10]:        80        80       220       227        72        72         0         0         0         0         0         0         0         0         0         0 
total reads: 7800
min_bank_accesses = 0!
chip skew: 751/671 = 1.12
average mf latency per bank:
dram[0]:      65820     65014     27181     26179     19236     19196     21237     22116     47090     45072     64564     64652     53099     53795     25083     25159
dram[1]:      65777     65899     27287     28730     16741     15408     21976     21992     45003     45068     64565     64666     53757     53804     26126     26108
dram[2]:      67051     67147     25123     25788     18284     18279     21807     21818     44946     46349     65363     65483     54968     54243     26127     25206
dram[3]:      65463     65977     28779     28103     17347     18372     22094     21526     47542     47600     64544     64653     54841     54856     25140     26093
dram[4]:      65749     67328     25915     26773     19709     17613     22391     22177     47543     47595     64561     64659     54855     54976     25673     25802
dram[5]:      70416     67811     26264     27381     19714     19728     22142     22794     47531     46297     65885     65973     54857     54908     24817     24819
dram[6]:      66699     66839     27644     27604     18831     20069     22214     22463     47546     47607     64550     64646     55878     55936     25726     25776
dram[7]:      63589     63654     28273     25756     17124     18181     22378     22397     47523     47600     64571     64658     55473     56620     26692     25749
dram[8]:      62070     62099     28995     25307     19700     18533     21573     21059     47016     48400     64578     64674     56452     55354     25129     25142
dram[9]:      62058     62337     24320     28352     20924     18257     21877     21294     47637     47702     64558     64648     52856     52236     25132     25144
dram[10]:      62399     62124     26329     25087     17408     18948     21254     21037     47638     47661     64565     65479     52183     52155     24059     24171
maximum mf latency per bank:
dram[0]:     202183    202251    202143    202195    199492    199479     38916     38918     63716     63760     63701     63815     63574     63629     63355     63316
dram[1]:     202188    202248    202205    202258    199475    199382     38925     38956     63711     63745     63708     63779     63567     63622     63338     63290
dram[2]:     202172    202306    202137    202209    199391    199413     38924     38935     63691     63740     63713     63810     63578     63635     63330     63342
dram[3]:     202171    202267    202127    202253    199398    199416     38936     38947     63695     63729     63690     63777     63589     63620     63359     63205
dram[4]:     202176    202234    202246    202243    199433    199442     38948     38942     63700     63787     63709     63766     63610     63645     63342     63330
dram[5]:     202192    202276    202199    202232    199433    199406     38931     38949     63740     63787     63718     63765     63560     63669     63347     63361
dram[6]:     202181    202261    202181    202220    199444    199464     38935     38943     63752     63747     63681     63714     63601     63661     63336     63356
dram[7]:     202199    202255    202094    202181    199422    199423     38936     38955     63706     63755     63669     63748     63610     63648     63349     63347
dram[8]:     202207    202252    202081    202171    199410    199420     38937     38941     63714     63773     63676     63757     63603     63642     63386     63452
dram[9]:     202187    202254    202135    202232    199425    199460     38918     38934     63718     63762     63678     63759     63572     63630     63381     63448
dram[10]:     202196    202245    202162    202199    199409    199440     38919     38940     63703     63777     63667     63784     63581     63642     63282     63287
Memory Partition 0: 
Cache L2_bank_000:
MSHR contents

Cache L2_bank_001:
MSHR contents

In Dram Latency Queue (total = 0): 
DRAM[0]: 16 bks, busW=4 BL=8 CL=12, tRRD=2 tCCD=6, tRCD=12 tRAS=28 tRP=12 tRC=40
n_cmd=711324 n_nop=706506 n_act=101 n_pre=85 n_req=1707 n_rd=3900 n_write=732 bw_util=0.01302
n_activity=13081 dram_eff=0.7082
bk0: 240a 709892i bk1: 236a 709399i bk2: 320a 708498i bk3: 320a 707959i bk4: 280a 709100i bk5: 280a 708726i bk6: 252a 709771i bk7: 252a 709405i bk8: 192a 710790i bk9: 192a 710453i bk10: 192a 710487i bk11: 192a 710135i bk12: 220a 710059i bk13: 220a 709885i bk14: 256a 710002i bk15: 256a 709578i 
dram_util_bins: 0 0 0 0 0 0 0 0 0 0
dram_eff_bins: 0 0 0 0 0 0 0 0 0 0
mrqq: max=64 avg=0.201682
Memory Partition 1: 
Cache L2_bank_002:
MSHR contents

Cache L2_bank_003:
MSHR contents

In Dram Latency Queue (total = 0): 
DRAM[1]: 16 bks, busW=4 BL=8 CL=12, tRRD=2 tCCD=6, tRCD=12 tRAS=28 tRP=12 tRC=40
n_cmd=711324 n_nop=706525 n_act=100 n_pre=84 n_req=1693 n_rd=3896 n_write=719 bw_util=0.01298
n_activity=12930 dram_eff=0.7138
bk0: 236a 709922i bk1: 236a 709401i bk2: 320a 708535i bk3: 320a 708045i bk4: 280a 709134i bk5: 280a 708883i bk6: 252a 709834i bk7: 252a 709501i bk8: 192a 710746i bk9: 192a 710422i bk10: 192a 710476i bk11: 192a 710105i bk12: 220a 709939i bk13: 220a 709651i bk14: 256a 709954i bk15: 256a 709656i 
dram_util_bins: 0 0 0 0 0 0 0 0 0 0
dram_eff_bins: 0 0 0 0 0 0 0 0 0 0
mrqq: max=64 avg=0.205078
Memory Partition 2: 
Cache L2_bank_004:
MSHR contents

Cache L2_bank_005:
MSHR contents

In Dram Latency Queue (total = 0): 
DRAM[2]: 16 bks, busW=4 BL=8 CL=12, tRRD=2 tCCD=6, tRCD=12 tRAS=28 tRP=12 tRC=40
n_cmd=711324 n_nop=706520 n_act=100 n_pre=84 n_req=1701 n_rd=3892 n_write=728 bw_util=0.01299
n_activity=13018 dram_eff=0.7098
bk0: 236a 709904i bk1: 236a 709344i bk2: 320a 708306i bk3: 320a 707931i bk4: 280a 709250i bk5: 276a 708838i bk6: 252a 709821i bk7: 252a 709517i bk8: 192a 710767i bk9: 192a 710429i bk10: 192a 710400i bk11: 192a 710085i bk12: 220a 709912i bk13: 220a 709750i bk14: 256a 709956i bk15: 256a 709609i 
dram_util_bins: 0 0 0 0 0 0 0 0 0 0
dram_eff_bins: 0 0 0 0 0 0 0 0 0 0
mrqq: max=64 avg=0.207169
Memory Partition 3: 
Cache L2_bank_006:
MSHR contents

Cache L2_bank_007:
MSHR contents

In Dram Latency Queue (total = 0): 
DRAM[3]: 16 bks, busW=4 BL=8 CL=12, tRRD=2 tCCD=6, tRCD=12 tRAS=28 tRP=12 tRC=40
n_cmd=711324 n_nop=706584 n_act=100 n_pre=84 n_req=1643 n_rd=3884 n_write=672 bw_util=0.01281
n_activity=12677 dram_eff=0.7188
bk0: 236a 709966i bk1: 232a 709363i bk2: 320a 708556i bk3: 320a 707853i bk4: 276a 709291i bk5: 276a 708887i bk6: 252a 709756i bk7: 252a 709476i bk8: 192a 710782i bk9: 192a 710417i bk10: 192a 710404i bk11: 192a 710052i bk12: 220a 710097i bk13: 220a 709781i bk14: 256a 709892i bk15: 256a 709775i 
dram_util_bins: 0 0 0 0 0 0 0 0 0 0
dram_eff_bins: 0 0 0 0 0 0 0 0 0 0
mrqq: max=64 avg=0.201159
Memory Partition 4: 
Cache L2_bank_008:
MSHR contents

Cache L2_bank_009:
MSHR contents

In Dram Latency Queue (total = 0): 
DRAM[4]: 16 bks, busW=4 BL=8 CL=12, tRRD=2 tCCD=6, tRCD=12 tRAS=28 tRP=12 tRC=40
n_cmd=711324 n_nop=706547 n_act=102 n_pre=86 n_req=1679 n_rd=3880 n_write=709 bw_util=0.0129
n_activity=12753 dram_eff=0.7197
bk0: 232a 709939i bk1: 232a 709451i bk2: 320a 708302i bk3: 320a 707557i bk4: 276a 709276i bk5: 276a 708848i bk6: 248a 709854i bk7: 248a 709550i bk8: 192a 710711i bk9: 192a 710391i bk10: 192a 710409i bk11: 192a 710078i bk12: 220a 710090i bk13: 220a 709760i bk14: 260a 709926i bk15: 260a 709521i 
dram_util_bins: 0 0 0 0 0 0 0 0 0 0
dram_eff_bins: 0 0 0 0 0 0 0 0 0 0
mrqq: max=64 avg=0.206028
Memory Partition 5: 
Cache L2_bank_010:
MSHR contents

Cache L2_bank_011:
MSHR contents

In Dram Latency Queue (total = 0): 
DRAM[5]: 16 bks, busW=4 BL=8 CL=12, tRRD=2 tCCD=6, tRCD=12 tRAS=28 tRP=12 tRC=40
n_cmd=711324 n_nop=706576 n_act=102 n_pre=86 n_req=1650 n_rd=3880 n_write=680 bw_util=0.01282
n_activity=12913 dram_eff=0.7063
bk0: 232a 709916i bk1: 232a 709456i bk2: 320a 708438i bk3: 320a 707856i bk4: 276a 709256i bk5: 276a 708876i bk6: 248a 709951i bk7: 248a 709641i bk8: 192a 710739i bk9: 192a 710384i bk10: 192a 710429i bk11: 192a 710100i bk12: 220a 710146i bk13: 220a 709888i bk14: 260a 709881i bk15: 260a 709535i 
dram_util_bins: 0 0 0 0 0 0 0 0 0 0
dram_eff_bins: 0 0 0 0 0 0 0 0 0 0
mrqq: max=64 avg=0.203512
Memory Partition 6: 
Cache L2_bank_012:
MSHR contents

Cache L2_bank_013:
MSHR contents

In Dram Latency Queue (total = 0): 
DRAM[6]: 16 bks, busW=4 BL=8 CL=12, tRRD=2 tCCD=6, tRCD=12 tRAS=28 tRP=12 tRC=40
n_cmd=711324 n_nop=706585 n_act=102 n_pre=86 n_req=1641 n_rd=3880 n_write=671 bw_util=0.0128
n_activity=12930 dram_eff=0.7039
bk0: 232a 710005i bk1: 232a 709389i bk2: 320a 708471i bk3: 320a 707877i bk4: 276a 709200i bk5: 276a 708828i bk6: 248a 709886i bk7: 248a 709613i bk8: 192a 710686i bk9: 192a 710394i bk10: 192a 710440i bk11: 192a 710113i bk12: 220a 710173i bk13: 220a 709928i bk14: 260a 709947i bk15: 260a 709560i 
dram_util_bins: 0 0 0 0 0 0 0 0 0 0
dram_eff_bins: 0 0 0 0 0 0 0 0 0 0
mrqq: max=64 avg=0.203932
Memory Partition 7: 
Cache L2_bank_014:
MSHR contents

Cache L2_bank_015:
MSHR contents

In Dram Latency Queue (total = 0): 
DRAM[7]: 16 bks, busW=4 BL=8 CL=12, tRRD=2 tCCD=6, tRCD=12 tRAS=28 tRP=12 tRC=40
n_cmd=711324 n_nop=706537 n_act=99 n_pre=83 n_req=1689 n_rd=3888 n_write=717 bw_util=0.01295
n_activity=12693 dram_eff=0.7256
bk0: 240a 709825i bk1: 240a 709231i bk2: 320a 708417i bk3: 320a 707980i bk4: 276a 709319i bk5: 276a 708992i bk6: 248a 709812i bk7: 248a 709504i bk8: 192a 710665i bk9: 192a 710294i bk10: 192a 710444i bk11: 192a 710093i bk12: 220a 710152i bk13: 220a 709856i bk14: 256a 709914i bk15: 256a 709578i 
dram_util_bins: 0 0 0 0 0 0 0 0 0 0
dram_eff_bins: 0 0 0 0 0 0 0 0 0 0
mrqq: max=64 avg=0.204621
Memory Partition 8: 
Cache L2_bank_016:
MSHR contents

Cache L2_bank_017:
MSHR contents

In Dram Latency Queue (total = 0): 
DRAM[8]: 16 bks, busW=4 BL=8 CL=12, tRRD=2 tCCD=6, tRCD=12 tRAS=28 tRP=12 tRC=40
n_cmd=711324 n_nop=706539 n_act=100 n_pre=84 n_req=1679 n_rd=3896 n_write=705 bw_util=0.01294
n_activity=13211 dram_eff=0.6965
bk0: 240a 709858i bk1: 240a 709314i bk2: 320a 708655i bk3: 320a 707998i bk4: 276a 709357i bk5: 276a 708999i bk6: 248a 709912i bk7: 248a 709500i bk8: 192a 710729i bk9: 192a 710364i bk10: 192a 710475i bk11: 192a 710131i bk12: 224a 710141i bk13: 224a 709817i bk14: 256a 710021i bk15: 256a 709725i 
dram_util_bins: 0 0 0 0 0 0 0 0 0 0
dram_eff_bins: 0 0 0 0 0 0 0 0 0 0
mrqq: max=64 avg=0.202944
Memory Partition 9: 
Cache L2_bank_018:
MSHR contents

Cache L2_bank_019:
MSHR contents

In Dram Latency Queue (total = 0): 
DRAM[9]: 16 bks, busW=4 BL=8 CL=12, tRRD=2 tCCD=6, tRCD=12 tRAS=28 tRP=12 tRC=40
n_cmd=711324 n_nop=706524 n_act=102 n_pre=86 n_req=1690 n_rd=3896 n_write=716 bw_util=0.01297
n_activity=12882 dram_eff=0.716
bk0: 240a 709820i bk1: 240a 709298i bk2: 320a 708321i bk3: 320a 708047i bk4: 276a 709292i bk5: 276a 708980i bk6: 248a 709930i bk7: 248a 709549i bk8: 192a 710718i bk9: 192a 710487i bk10: 192a 710468i bk11: 192a 710130i bk12: 224a 710141i bk13: 224a 709831i bk14: 256a 709950i bk15: 256a 709574i 
dram_util_bins: 0 0 0 0 0 0 0 0 0 0
dram_eff_bins: 0 0 0 0 0 0 0 0 0 0
mrqq: max=64 avg=0.203823
Memory Partition 10: 
Cache L2_bank_020:
MSHR contents

Cache L2_bank_021:
MSHR contents

In Dram Latency Queue (total = 0): 
DRAM[10]: 16 bks, busW=4 BL=8 CL=12, tRRD=2 tCCD=6, tRCD=12 tRAS=28 tRP=12 tRC=40
n_cmd=711324 n_nop=706493 n_act=100 n_pre=84 n_req=1725 n_rd=3896 n_write=751 bw_util=0.01307
n_activity=13005 dram_eff=0.7146
bk0: 240a 709798i bk1: 240a 709271i bk2: 320a 708332i bk3: 320a 708001i bk4: 276a 709279i bk5: 276a 708832i bk6: 248a 709871i bk7: 248a 709477i bk8: 192a 710764i bk9: 192a 710436i bk10: 192a 710423i bk11: 192a 710089i bk12: 224a 710119i bk13: 224a 709824i bk14: 256a 710018i bk15: 256a 709676i 
dram_util_bins: 0 0 0 0 0 0 0 0 0 0
dram_eff_bins: 0 0 0 0 0 0 0 0 0 0
mrqq: max=64 avg=0.205598

========= L2 cache stats =========
L2_cache_bank[0]: Access = 2524, Miss = 488, Miss_rate = 0.193, Pending_hits = 1117, Reservation_fails = 0
L2_cache_bank[1]: Access = 2496, Miss = 487, Miss_rate = 0.195, Pending_hits = 1120, Reservation_fails = 0
L2_cache_bank[2]: Access = 2496, Miss = 487, Miss_rate = 0.195, Pending_hits = 1106, Reservation_fails = 0
L2_cache_bank[3]: Access = 2496, Miss = 487, Miss_rate = 0.195, Pending_hits = 1104, Reservation_fails = 0
L2_cache_bank[4]: Access = 2488, Miss = 487, Miss_rate = 0.196, Pending_hits = 1098, Reservation_fails = 0
L2_cache_bank[5]: Access = 2480, Miss = 486, Miss_rate = 0.196, Pending_hits = 1104, Reservation_fails = 0
L2_cache_bank[6]: Access = 2470, Miss = 486, Miss_rate = 0.197, Pending_hits = 1057, Reservation_fails = 0
L2_cache_bank[7]: Access = 2461, Miss = 485, Miss_rate = 0.197, Pending_hits = 1055, Reservation_fails = 0
L2_cache_bank[8]: Access = 2487, Miss = 485, Miss_rate = 0.195, Pending_hits = 1095, Reservation_fails = 0
L2_cache_bank[9]: Access = 2487, Miss = 485, Miss_rate = 0.195, Pending_hits = 1115, Reservation_fails = 0
L2_cache_bank[10]: Access = 2487, Miss = 485, Miss_rate = 0.195, Pending_hits = 1097, Reservation_fails = 0
L2_cache_bank[11]: Access = 2485, Miss = 485, Miss_rate = 0.195, Pending_hits = 1078, Reservation_fails = 0
L2_cache_bank[12]: Access = 2487, Miss = 485, Miss_rate = 0.195, Pending_hits = 1086, Reservation_fails = 0
L2_cache_bank[13]: Access = 2487, Miss = 485, Miss_rate = 0.195, Pending_hits = 1069, Reservation_fails = 0
L2_cache_bank[14]: Access = 2477, Miss = 486, Miss_rate = 0.196, Pending_hits = 1054, Reservation_fails = 0
L2_cache_bank[15]: Access = 2479, Miss = 486, Miss_rate = 0.196, Pending_hits = 1099, Reservation_fails = 0
L2_cache_bank[16]: Access = 2493, Miss = 487, Miss_rate = 0.195, Pending_hits = 1076, Reservation_fails = 0
L2_cache_bank[17]: Access = 2496, Miss = 487, Miss_rate = 0.195, Pending_hits = 1104, Reservation_fails = 0
L2_cache_bank[18]: Access = 2496, Miss = 487, Miss_rate = 0.195, Pending_hits = 1096, Reservation_fails = 0
L2_cache_bank[19]: Access = 2496, Miss = 487, Miss_rate = 0.195, Pending_hits = 1072, Reservation_fails = 0
L2_cache_bank[20]: Access = 2496, Miss = 487, Miss_rate = 0.195, Pending_hits = 1068, Reservation_fails = 0
L2_cache_bank[21]: Access = 2494, Miss = 487, Miss_rate = 0.195, Pending_hits = 1100, Reservation_fails = 0
L2_total_cache_accesses = 54758
L2_total_cache_misses = 10697
L2_total_cache_miss_rate = 0.1954
L2_total_cache_pending_hits = 23970
L2_total_cache_reservation_fails = 0
L2_total_cache_breakdown:
	L2_cache_stats_breakdown[GLOBAL_ACC_R][HIT] = 861
	L2_cache_stats_breakdown[GLOBAL_ACC_R][HIT_RESERVED] = 16574
	L2_cache_stats_breakdown[GLOBAL_ACC_R][MISS] = 10127
	L2_cache_stats_breakdown[GLOBAL_ACC_R][RESERVATION_FAIL] = 0
	L2_cache_stats_breakdown[LOCAL_ACC_R][HIT] = 0
	L2_cache_stats_breakdown[LOCAL_ACC_R][HIT_RESERVED] = 0
	L2_cache_stats_breakdown[LOCAL_ACC_R][MISS] = 0
	L2_cache_stats_breakdown[LOCAL_ACC_R][RESERVATION_FAIL] = 0
	L2_cache_stats_breakdown[CONST_ACC_R][HIT] = 0
	L2_cache_stats_breakdown[CONST_ACC_R][HIT_RESERVED] = 27
	L2_cache_stats_breakdown[CONST_ACC_R][MISS] = 1
	L2_cache_stats_breakdown[CONST_ACC_R][RESERVATION_FAIL] = 0
	L2_cache_stats_breakdown[TEXTURE_ACC_R][HIT] = 0
	L2_cache_stats_breakdown[TEXTURE_ACC_R][HIT_RESERVED] = 0
	L2_cache_stats_breakdown[TEXTURE_ACC_R][MISS] = 0
	L2_cache_stats_breakdown[TEXTURE_ACC_R][RESERVATION_FAIL] = 0
	L2_cache_stats_breakdown[GLOBAL_ACC_W][HIT] = 19200
	L2_cache_stats_breakdown[GLOBAL_ACC_W][HIT_RESERVED] = 7237
	L2_cache_stats_breakdown[GLOBAL_ACC_W][MISS] = 563
	L2_cache_stats_breakdown[GLOBAL_ACC_W][RESERVATION_FAIL] = 0
	L2_cache_stats_breakdown[LOCAL_ACC_W][HIT] = 0
	L2_cache_stats_breakdown[LOCAL_ACC_W][HIT_RESERVED] = 0
	L2_cache_stats_breakdown[LOCAL_ACC_W][MISS] = 0
	L2_cache_stats_breakdown[LOCAL_ACC_W][RESERVATION_FAIL] = 0
	L2_cache_stats_breakdown[L1_WRBK_ACC][HIT] = 0
	L2_cache_stats_breakdown[L1_WRBK_ACC][HIT_RESERVED] = 0
	L2_cache_stats_breakdown[L1_WRBK_ACC][MISS] = 0
	L2_cache_stats_breakdown[L1_WRBK_ACC][RESERVATION_FAIL] = 0
	L2_cache_stats_breakdown[L2_WRBK_ACC][HIT] = 0
	L2_cache_stats_breakdown[L2_WRBK_ACC][HIT_RESERVED] = 0
	L2_cache_stats_breakdown[L2_WRBK_ACC][MISS] = 0
	L2_cache_stats_breakdown[L2_WRBK_ACC][RESERVATION_FAIL] = 0
	L2_cache_stats_breakdown[INST_ACC_R][HIT] = 30
	L2_cache_stats_breakdown[INST_ACC_R][HIT_RESERVED] = 132
	L2_cache_stats_breakdown[INST_ACC_R][MISS] = 6
	L2_cache_stats_breakdown[INST_ACC_R][RESERVATION_FAIL] = 0
	L2_cache_stats_breakdown[L1_WR_ALLOC_R][HIT] = 0
	L2_cache_stats_breakdown[L1_WR_ALLOC_R][HIT_RESERVED] = 0
	L2_cache_stats_breakdown[L1_WR_ALLOC_R][MISS] = 0
	L2_cache_stats_breakdown[L1_WR_ALLOC_R][RESERVATION_FAIL] = 0
	L2_cache_stats_breakdown[L2_WR_ALLOC_R][HIT] = 0
	L2_cache_stats_breakdown[L2_WR_ALLOC_R][HIT_RESERVED] = 0
	L2_cache_stats_breakdown[L2_WR_ALLOC_R][MISS] = 0
	L2_cache_stats_breakdown[L2_WR_ALLOC_R][RESERVATION_FAIL] = 0
	L2_cache_stats_breakdown[GLOBAL_ACC_R][TOTAL_ACCESS] = 27562
	L2_cache_stats_breakdown[CONST_ACC_R][TOTAL_ACCESS] = 28
	L2_cache_stats_breakdown[GLOBAL_ACC_W][TOTAL_ACCESS] = 27000
	L2_cache_stats_breakdown[INST_ACC_R][TOTAL_ACCESS] = 168
L2_cache_data_port_util = 0.006
L2_cache_fill_port_util = 0.005

icnt_total_pkts_mem_to_simt=117361
icnt_total_pkts_simt_to_mem=113257
LD_mem_lat_dist  0 0 0 0 0 0 0 0 0 0 0 0 0 0 0 0 0 0 0 0 0 0 0 0 0 0 0
ST_mem_lat_dist  0 0 0 0 0 0 0 0 0 0 0 0 0 0 0 0 0 0 0 0 0 0 0 0 0 0 0
----------------------------Interconnect-DETAILS--------------------------------
Class 0:
Packet latency average = 19.0117
	minimum = 6
	maximum = 142
Network latency average = 14.0772
	minimum = 6
	maximum = 106
Slowest packet = 27
Flit latency average = 13.4839
	minimum = 6
	maximum = 102
Slowest flit = 73263
Fragmentation average = 0
	minimum = 0
	maximum = 0
Injected packet rate average = 0.00285883
	minimum = 0.00246815 (at node 11)
	maximum = 0.00329435 (at node 28)
Accepted packet rate average = 0.00285883
	minimum = 0.00246815 (at node 11)
	maximum = 0.00329435 (at node 28)
Injected flit rate average = 0.0060201
	minimum = 0.00509554 (at node 11)
	maximum = 0.00705336 (at node 28)
Accepted flit rate average= 0.0060201
	minimum = 0.00530176 (at node 11)
	maximum = 0.00677665 (at node 28)
Injected packet length average = 2.10579
Accepted packet length average = 2.10579
Total in-flight flits = 0 (0 measured)
====== Overall Traffic Statistics ======
====== Traffic class 0 ======
Packet latency average = 19.0117 (1 samples)
	minimum = 6 (1 samples)
	maximum = 142 (1 samples)
Network latency average = 14.0772 (1 samples)
	minimum = 6 (1 samples)
	maximum = 106 (1 samples)
Flit latency average = 13.4839 (1 samples)
	minimum = 6 (1 samples)
	maximum = 102 (1 samples)
Fragmentation average = 0 (1 samples)
	minimum = 0 (1 samples)
	maximum = 0 (1 samples)
Injected packet rate average = 0.00285883 (1 samples)
	minimum = 0.00246815 (1 samples)
	maximum = 0.00329435 (1 samples)
Accepted packet rate average = 0.00285883 (1 samples)
	minimum = 0.00246815 (1 samples)
	maximum = 0.00329435 (1 samples)
Injected flit rate average = 0.0060201 (1 samples)
	minimum = 0.00509554 (1 samples)
	maximum = 0.00705336 (1 samples)
Accepted flit rate average = 0.0060201 (1 samples)
	minimum = 0.00530176 (1 samples)
	maximum = 0.00677665 (1 samples)
Injected packet size average = 2.10579 (1 samples)
Accepted packet size average = 2.10579 (1 samples)
Hops average = 1 (1 samples)
----------------------------END-of-Interconnect-DETAILS-------------------------


gpgpu_simulation_time = 0 days, 0 hrs, 17 min, 12 sec (1032 sec)
gpgpu_simulation_rate = 29930 (inst/sec)
gpgpu_simulation_rate = 586 (cycle/sec)
GPGPU-Sim: synchronize waiting for inactive GPU simulation
GPGPU-Sim API: Stream Manager State
GPGPU-Sim: detected inactive GPU simulation thread

GPGPU-Sim PTX: cudaLaunch for 0x0x402d5b (mode=performance simulation) on stream 0
GPGPU-Sim PTX: pushing kernel '_Z24bpnn_adjust_weights_cudaPfiS_iS_S_' to stream 0, gridDim= (1,1125,1) blockDim = (16,16,1) 
GPGPU-Sim uArch: Shader 4 bind to kernel 2 '_Z24bpnn_adjust_weights_cudaPfiS_iS_S_'
GPGPU-Sim uArch: CTA/core = 8, limited by: threads
GPGPU-Sim uArch: Shader 5 bind to kernel 2 '_Z24bpnn_adjust_weights_cudaPfiS_iS_S_'
GPGPU-Sim uArch: Shader 6 bind to kernel 2 '_Z24bpnn_adjust_weights_cudaPfiS_iS_S_'
GPGPU-Sim uArch: Shader 7 bind to kernel 2 '_Z24bpnn_adjust_weights_cudaPfiS_iS_S_'
GPGPU-Sim uArch: Shader 8 bind to kernel 2 '_Z24bpnn_adjust_weights_cudaPfiS_iS_S_'
GPGPU-Sim uArch: Shader 9 bind to kernel 2 '_Z24bpnn_adjust_weights_cudaPfiS_iS_S_'
GPGPU-Sim uArch: Shader 10 bind to kernel 2 '_Z24bpnn_adjust_weights_cudaPfiS_iS_S_'
GPGPU-Sim uArch: Shader 11 bind to kernel 2 '_Z24bpnn_adjust_weights_cudaPfiS_iS_S_'
GPGPU-Sim uArch: Shader 12 bind to kernel 2 '_Z24bpnn_adjust_weights_cudaPfiS_iS_S_'
GPGPU-Sim uArch: Shader 13 bind to kernel 2 '_Z24bpnn_adjust_weights_cudaPfiS_iS_S_'
GPGPU-Sim uArch: Shader 14 bind to kernel 2 '_Z24bpnn_adjust_weights_cudaPfiS_iS_S_'
GPGPU-Sim uArch: Shader 15 bind to kernel 2 '_Z24bpnn_adjust_weights_cudaPfiS_iS_S_'
GPGPU-Sim uArch: Shader 16 bind to kernel 2 '_Z24bpnn_adjust_weights_cudaPfiS_iS_S_'
GPGPU-Sim uArch: Shader 17 bind to kernel 2 '_Z24bpnn_adjust_weights_cudaPfiS_iS_S_'
GPGPU-Sim uArch: Shader 18 bind to kernel 2 '_Z24bpnn_adjust_weights_cudaPfiS_iS_S_'
GPGPU-Sim uArch: Shader 19 bind to kernel 2 '_Z24bpnn_adjust_weights_cudaPfiS_iS_S_'
GPGPU-Sim uArch: Shader 20 bind to kernel 2 '_Z24bpnn_adjust_weights_cudaPfiS_iS_S_'
GPGPU-Sim uArch: Shader 21 bind to kernel 2 '_Z24bpnn_adjust_weights_cudaPfiS_iS_S_'
GPGPU-Sim uArch: Shader 22 bind to kernel 2 '_Z24bpnn_adjust_weights_cudaPfiS_iS_S_'
GPGPU-Sim uArch: Shader 23 bind to kernel 2 '_Z24bpnn_adjust_weights_cudaPfiS_iS_S_'
GPGPU-Sim uArch: Shader 24 bind to kernel 2 '_Z24bpnn_adjust_weights_cudaPfiS_iS_S_'
GPGPU-Sim uArch: Shader 25 bind to kernel 2 '_Z24bpnn_adjust_weights_cudaPfiS_iS_S_'
GPGPU-Sim uArch: Shader 26 bind to kernel 2 '_Z24bpnn_adjust_weights_cudaPfiS_iS_S_'
GPGPU-Sim uArch: Shader 27 bind to kernel 2 '_Z24bpnn_adjust_weights_cudaPfiS_iS_S_'
GPGPU-Sim uArch: Shader 0 bind to kernel 2 '_Z24bpnn_adjust_weights_cudaPfiS_iS_S_'
GPGPU-Sim uArch: Shader 1 bind to kernel 2 '_Z24bpnn_adjust_weights_cudaPfiS_iS_S_'
GPGPU-Sim uArch: Shader 2 bind to kernel 2 '_Z24bpnn_adjust_weights_cudaPfiS_iS_S_'
GPGPU-Sim uArch: Shader 3 bind to kernel 2 '_Z24bpnn_adjust_weights_cudaPfiS_iS_S_'
GPGPU-Sim uArch: Shader 4 bind to kernel 2 '_Z24bpnn_adjust_weights_cudaPfiS_iS_S_'
GPGPU-Sim uArch: Shader 5 bind to kernel 2 '_Z24bpnn_adjust_weights_cudaPfiS_iS_S_'
GPGPU-Sim uArch: Shader 6 bind to kernel 2 '_Z24bpnn_adjust_weights_cudaPfiS_iS_S_'
GPGPU-Sim uArch: Shader 7 bind to kernel 2 '_Z24bpnn_adjust_weights_cudaPfiS_iS_S_'
GPGPU-Sim uArch: Shader 8 bind to kernel 2 '_Z24bpnn_adjust_weights_cudaPfiS_iS_S_'
GPGPU-Sim uArch: Shader 9 bind to kernel 2 '_Z24bpnn_adjust_weights_cudaPfiS_iS_S_'
GPGPU-Sim uArch: Shader 10 bind to kernel 2 '_Z24bpnn_adjust_weights_cudaPfiS_iS_S_'
GPGPU-Sim uArch: Shader 11 bind to kernel 2 '_Z24bpnn_adjust_weights_cudaPfiS_iS_S_'
GPGPU-Sim uArch: Shader 12 bind to kernel 2 '_Z24bpnn_adjust_weights_cudaPfiS_iS_S_'
GPGPU-Sim uArch: Shader 13 bind to kernel 2 '_Z24bpnn_adjust_weights_cudaPfiS_iS_S_'
GPGPU-Sim uArch: Shader 14 bind to kernel 2 '_Z24bpnn_adjust_weights_cudaPfiS_iS_S_'
GPGPU-Sim uArch: Shader 15 bind to kernel 2 '_Z24bpnn_adjust_weights_cudaPfiS_iS_S_'
GPGPU-Sim uArch: Shader 16 bind to kernel 2 '_Z24bpnn_adjust_weights_cudaPfiS_iS_S_'
GPGPU-Sim uArch: Shader 17 bind to kernel 2 '_Z24bpnn_adjust_weights_cudaPfiS_iS_S_'
GPGPU-Sim uArch: Shader 18 bind to kernel 2 '_Z24bpnn_adjust_weights_cudaPfiS_iS_S_'
GPGPU-Sim uArch: Shader 19 bind to kernel 2 '_Z24bpnn_adjust_weights_cudaPfiS_iS_S_'
GPGPU-Sim uArch: Shader 25 bind to kernel 2 '_Z24bpnn_adjust_weights_cudaPfiS_iS_S_'
GPGPU-Sim uArch: Shader 26 bind to kernel 2 '_Z24bpnn_adjust_weights_cudaPfiS_iS_S_'
GPGPU-Sim uArch: Shader 27 bind to kernel 2 '_Z24bpnn_adjust_weights_cudaPfiS_iS_S_'
GPGPU-Sim uArch: Shader 0 bind to kernel 2 '_Z24bpnn_adjust_weights_cudaPfiS_iS_S_'
GPGPU-Sim uArch: Shader 1 bind to kernel 2 '_Z24bpnn_adjust_weights_cudaPfiS_iS_S_'
GPGPU-Sim uArch: Shader 2 bind to kernel 2 '_Z24bpnn_adjust_weights_cudaPfiS_iS_S_'
GPGPU-Sim uArch: Shader 3 bind to kernel 2 '_Z24bpnn_adjust_weights_cudaPfiS_iS_S_'
GPGPU-Sim uArch: Shader 4 bind to kernel 2 '_Z24bpnn_adjust_weights_cudaPfiS_iS_S_'
GPGPU-Sim uArch: Shader 5 bind to kernel 2 '_Z24bpnn_adjust_weights_cudaPfiS_iS_S_'
GPGPU-Sim uArch: Shader 6 bind to kernel 2 '_Z24bpnn_adjust_weights_cudaPfiS_iS_S_'
GPGPU-Sim uArch: Shader 7 bind to kernel 2 '_Z24bpnn_adjust_weights_cudaPfiS_iS_S_'
GPGPU-Sim uArch: Shader 8 bind to kernel 2 '_Z24bpnn_adjust_weights_cudaPfiS_iS_S_'
GPGPU-Sim uArch: Shader 9 bind to kernel 2 '_Z24bpnn_adjust_weights_cudaPfiS_iS_S_'
GPGPU-Sim uArch: Shader 10 bind to kernel 2 '_Z24bpnn_adjust_weights_cudaPfiS_iS_S_'
GPGPU-Sim uArch: Shader 11 bind to kernel 2 '_Z24bpnn_adjust_weights_cudaPfiS_iS_S_'
GPGPU-Sim uArch: Shader 12 bind to kernel 2 '_Z24bpnn_adjust_weights_cudaPfiS_iS_S_'
GPGPU-Sim uArch: Shader 17 bind to kernel 2 '_Z24bpnn_adjust_weights_cudaPfiS_iS_S_'
GPGPU-Sim uArch: Shader 18 bind to kernel 2 '_Z24bpnn_adjust_weights_cudaPfiS_iS_S_'
GPGPU-Sim uArch: Shader 19 bind to kernel 2 '_Z24bpnn_adjust_weights_cudaPfiS_iS_S_'
GPGPU-Sim uArch: Shader 20 bind to kernel 2 '_Z24bpnn_adjust_weights_cudaPfiS_iS_S_'
GPGPU-Sim uArch: Shader 21 bind to kernel 2 '_Z24bpnn_adjust_weights_cudaPfiS_iS_S_'
GPGPU-Sim uArch: Shader 22 bind to kernel 2 '_Z24bpnn_adjust_weights_cudaPfiS_iS_S_'
GPGPU-Sim uArch: Shader 23 bind to kernel 2 '_Z24bpnn_adjust_weights_cudaPfiS_iS_S_'
GPGPU-Sim uArch: Shader 24 bind to kernel 2 '_Z24bpnn_adjust_weights_cudaPfiS_iS_S_'
GPGPU-Sim uArch: Shader 25 bind to kernel 2 '_Z24bpnn_adjust_weights_cudaPfiS_iS_S_'
GPGPU-Sim uArch: Shader 26 bind to kernel 2 '_Z24bpnn_adjust_weights_cudaPfiS_iS_S_'
GPGPU-Sim uArch: Shader 27 bind to kernel 2 '_Z24bpnn_adjust_weights_cudaPfiS_iS_S_'
GPGPU-Sim uArch: Shader 0 bind to kernel 2 '_Z24bpnn_adjust_weights_cudaPfiS_iS_S_'
GPGPU-Sim uArch: Shader 1 bind to kernel 2 '_Z24bpnn_adjust_weights_cudaPfiS_iS_S_'
GPGPU-Sim uArch: Shader 2 bind to kernel 2 '_Z24bpnn_adjust_weights_cudaPfiS_iS_S_'
GPGPU-Sim uArch: Shader 3 bind to kernel 2 '_Z24bpnn_adjust_weights_cudaPfiS_iS_S_'
GPGPU-Sim uArch: Shader 4 bind to kernel 2 '_Z24bpnn_adjust_weights_cudaPfiS_iS_S_'
GPGPU-Sim uArch: Shader 5 bind to kernel 2 '_Z24bpnn_adjust_weights_cudaPfiS_iS_S_'
GPGPU-Sim uArch: Shader 6 bind to kernel 2 '_Z24bpnn_adjust_weights_cudaPfiS_iS_S_'
GPGPU-Sim uArch: Shader 7 bind to kernel 2 '_Z24bpnn_adjust_weights_cudaPfiS_iS_S_'
GPGPU-Sim uArch: Shader 8 bind to kernel 2 '_Z24bpnn_adjust_weights_cudaPfiS_iS_S_'
GPGPU-Sim uArch: Shader 9 bind to kernel 2 '_Z24bpnn_adjust_weights_cudaPfiS_iS_S_'
GPGPU-Sim uArch: Shader 10 bind to kernel 2 '_Z24bpnn_adjust_weights_cudaPfiS_iS_S_'
GPGPU-Sim uArch: Shader 11 bind to kernel 2 '_Z24bpnn_adjust_weights_cudaPfiS_iS_S_'
GPGPU-Sim uArch: Shader 12 bind to kernel 2 '_Z24bpnn_adjust_weights_cudaPfiS_iS_S_'
GPGPU-Sim uArch: Shader 13 bind to kernel 2 '_Z24bpnn_adjust_weights_cudaPfiS_iS_S_'
GPGPU-Sim uArch: Shader 14 bind to kernel 2 '_Z24bpnn_adjust_weights_cudaPfiS_iS_S_'
GPGPU-Sim uArch: Shader 15 bind to kernel 2 '_Z24bpnn_adjust_weights_cudaPfiS_iS_S_'
GPGPU-Sim uArch: Shader 16 bind to kernel 2 '_Z24bpnn_adjust_weights_cudaPfiS_iS_S_'
GPGPU-Sim uArch: Shader 17 bind to kernel 2 '_Z24bpnn_adjust_weights_cudaPfiS_iS_S_'
GPGPU-Sim uArch: Shader 18 bind to kernel 2 '_Z24bpnn_adjust_weights_cudaPfiS_iS_S_'
GPGPU-Sim uArch: Shader 19 bind to kernel 2 '_Z24bpnn_adjust_weights_cudaPfiS_iS_S_'
GPGPU-Sim uArch: Shader 20 bind to kernel 2 '_Z24bpnn_adjust_weights_cudaPfiS_iS_S_'
GPGPU-Sim uArch: Shader 21 bind to kernel 2 '_Z24bpnn_adjust_weights_cudaPfiS_iS_S_'
GPGPU-Sim uArch: Shader 22 bind to kernel 2 '_Z24bpnn_adjust_weights_cudaPfiS_iS_S_'
GPGPU-Sim uArch: Shader 23 bind to kernel 2 '_Z24bpnn_adjust_weights_cudaPfiS_iS_S_'
GPGPU-Sim uArch: Shader 24 bind to kernel 2 '_Z24bpnn_adjust_weights_cudaPfiS_iS_S_'
GPGPU-Sim uArch: Shader 25 bind to kernel 2 '_Z24bpnn_adjust_weights_cudaPfiS_iS_S_'
GPGPU-Sim uArch: Shader 26 bind to kernel 2 '_Z24bpnn_adjust_weights_cudaPfiS_iS_S_'
GPGPU-Sim uArch: Shader 27 bind to kernel 2 '_Z24bpnn_adjust_weights_cudaPfiS_iS_S_'
GPGPU-Sim uArch: Shader 0 bind to kernel 2 '_Z24bpnn_adjust_weights_cudaPfiS_iS_S_'
GPGPU-Sim uArch: Shader 1 bind to kernel 2 '_Z24bpnn_adjust_weights_cudaPfiS_iS_S_'
GPGPU-Sim uArch: Shader 2 bind to kernel 2 '_Z24bpnn_adjust_weights_cudaPfiS_iS_S_'
GPGPU-Sim uArch: Shader 3 bind to kernel 2 '_Z24bpnn_adjust_weights_cudaPfiS_iS_S_'
GPGPU-Sim uArch: Shader 4 bind to kernel 2 '_Z24bpnn_adjust_weights_cudaPfiS_iS_S_'
GPGPU-Sim uArch: Shader 5 bind to kernel 2 '_Z24bpnn_adjust_weights_cudaPfiS_iS_S_'
GPGPU-Sim uArch: Shader 6 bind to kernel 2 '_Z24bpnn_adjust_weights_cudaPfiS_iS_S_'
GPGPU-Sim uArch: Shader 7 bind to kernel 2 '_Z24bpnn_adjust_weights_cudaPfiS_iS_S_'
GPGPU-Sim uArch: Shader 8 bind to kernel 2 '_Z24bpnn_adjust_weights_cudaPfiS_iS_S_'
GPGPU-Sim uArch: Shader 9 bind to kernel 2 '_Z24bpnn_adjust_weights_cudaPfiS_iS_S_'
GPGPU-Sim uArch: Shader 10 bind to kernel 2 '_Z24bpnn_adjust_weights_cudaPfiS_iS_S_'
GPGPU-Sim uArch: Shader 11 bind to kernel 2 '_Z24bpnn_adjust_weights_cudaPfiS_iS_S_'
GPGPU-Sim uArch: Shader 12 bind to kernel 2 '_Z24bpnn_adjust_weights_cudaPfiS_iS_S_'
GPGPU-Sim uArch: Shader 13 bind to kernel 2 '_Z24bpnn_adjust_weights_cudaPfiS_iS_S_'
GPGPU-Sim uArch: Shader 14 bind to kernel 2 '_Z24bpnn_adjust_weights_cudaPfiS_iS_S_'
GPGPU-Sim uArch: Shader 15 bind to kernel 2 '_Z24bpnn_adjust_weights_cudaPfiS_iS_S_'
GPGPU-Sim uArch: Shader 16 bind to kernel 2 '_Z24bpnn_adjust_weights_cudaPfiS_iS_S_'
[...]
F:  2198811----T:  2201416 	 St: 80557000 Sz: 4096 	 Sm: 0 	 T: memcpy_h2d(1.758947)
F:  2201416----T:  2204021 	 St: 80565000 Sz: 4096 	 Sm: 0 	 T: memcpy_h2d(1.758947)
F:  2204021----T:  2206626 	 St: 80560000 Sz: 4096 	 Sm: 0 	 T: memcpy_h2d(1.758947)
F:  2206626----T:  2209231 	 St: 80558000 Sz: 4096 	 Sm: 0 	 T: memcpy_h2d(1.758947)
F:  2209231----T:  2211836 	 St: 80559000 Sz: 4096 	 Sm: 0 	 T: memcpy_h2d(1.758947)
F:  2211836----T:  2214441 	 St: 8055e000 Sz: 4096 	 Sm: 0 	 T: memcpy_h2d(1.758947)
F:  2214441----T:  2217046 	 St: 80563000 Sz: 4096 	 Sm: 0 	 T: memcpy_h2d(1.758947)
F:  2217046----T:  2219651 	 St: 8056a000 Sz: 4096 	 Sm: 0 	 T: memcpy_h2d(1.758947)
F:  2219651----T:  2222256 	 St: 8055f000 Sz: 4096 	 Sm: 0 	 T: memcpy_h2d(1.758947)
F:  2222256----T:  2224861 	 St: 80561000 Sz: 4096 	 Sm: 0 	 T: memcpy_h2d(1.758947)
F:  2224861----T:  2227466 	 St: 80562000 Sz: 4096 	 Sm: 0 	 T: memcpy_h2d(1.758947)
F:  2227466----T:  2230071 	 St: 80569000 Sz: 4096 	 Sm: 0 	 T: memcpy_h2d(1.758947)
F:  2230071----T:  2232676 	 St: 80566000 Sz: 4096 	 Sm: 0 	 T: memcpy_h2d(1.758947)
F:  2232676----T:  2235281 	 St: 80564000 Sz: 4096 	 Sm: 0 	 T: memcpy_h2d(1.758947)
F:  2235281----T:  2237886 	 St: 8056b000 Sz: 4096 	 Sm: 0 	 T: memcpy_h2d(1.758947)
F:  2240718----T:  2243323 	 St: 80782000 Sz: 4096 	 Sm: 0 	 T: memcpy_h2d(1.758947)
F:  2243323----T:  2245928 	 St: 80789000 Sz: 4096 	 Sm: 0 	 T: memcpy_h2d(1.758947)
F:  2244294----T:  2246899 	 St: 804b8000 Sz: 4096 	 Sm: 0 	 T: write_back(1.758947)
F:  2245928----T:  2248533 	 St: 80791000 Sz: 4096 	 Sm: 0 	 T: memcpy_h2d(1.758947)
F:  2246899----T:  2249504 	 St: 806c8000 Sz: 4096 	 Sm: 0 	 T: write_back(1.758947)
F:  2248533----T:  2251138 	 St: 8078a000 Sz: 4096 	 Sm: 0 	 T: memcpy_h2d(1.758947)
F:  2249504----T:  2252109 	 St: 804b9000 Sz: 4096 	 Sm: 0 	 T: write_back(1.758947)
F:  2251138----T:  2253743 	 St: 8077d000 Sz: 4096 	 Sm: 0 	 T: memcpy_h2d(1.758947)
F:  2252109----T:  2254714 	 St: 806c9000 Sz: 4096 	 Sm: 0 	 T: write_back(1.758947)
F:  2253743----T:  2256348 	 St: 8077e000 Sz: 4096 	 Sm: 0 	 T: memcpy_h2d(1.758947)
F:  2254714----T:  2257319 	 St: 804ba000 Sz: 4096 	 Sm: 0 	 T: write_back(1.758947)
F:  2256348----T:  2258953 	 St: 8077c000 Sz: 4096 	 Sm: 0 	 T: memcpy_h2d(1.758947)
F:  2257319----T:  2259924 	 St: 806ca000 Sz: 4096 	 Sm: 0 	 T: write_back(1.758947)
F:  2258953----T:  2261558 	 St: 8077f000 Sz: 4096 	 Sm: 0 	 T: memcpy_h2d(1.758947)
F:  2259924----T:  2262529 	 St: 804b4000 Sz: 4096 	 Sm: 0 	 T: write_back(1.758947)
F:  2261558----T:  2264163 	 St: 80780000 Sz: 4096 	 Sm: 0 	 T: memcpy_h2d(1.758947)
F:  2262529----T:  2265134 	 St: 806c4000 Sz: 4096 	 Sm: 0 	 T: write_back(1.758947)
F:  2264163----T:  2266768 	 St: 80785000 Sz: 4096 	 Sm: 0 	 T: memcpy_h2d(1.758947)
F:  2265134----T:  2267739 	 St: 804b5000 Sz: 4096 	 Sm: 0 	 T: write_back(1.758947)
F:  2266768----T:  2269373 	 St: 80786000 Sz: 4096 	 Sm: 0 	 T: memcpy_h2d(1.758947)
F:  2267739----T:  2270344 	 St: 804b7000 Sz: 4096 	 Sm: 0 	 T: write_back(1.758947)
F:  2269373----T:  2271978 	 St: 80781000 Sz: 4096 	 Sm: 0 	 T: memcpy_h2d(1.758947)
F:  2270344----T:  2272949 	 St: 804b6000 Sz: 4096 	 Sm: 0 	 T: write_back(1.758947)
F:  2271978----T:  2274583 	 St: 80787000 Sz: 4096 	 Sm: 0 	 T: memcpy_h2d(1.758947)
F:  2272949----T:  2275554 	 St: 806c5000 Sz: 4096 	 Sm: 0 	 T: write_back(1.758947)
F:  2274583----T:  2277188 	 St: 80798000 Sz: 4096 	 Sm: 0 	 T: memcpy_h2d(1.758947)
F:  2275554----T:  2278159 	 St: 806c7000 Sz: 4096 	 Sm: 0 	 T: write_back(1.758947)
F:  2277188----T:  2279793 	 St: 80783000 Sz: 4096 	 Sm: 0 	 T: memcpy_h2d(1.758947)
F:  2278159----T:  2280764 	 St: 806c6000 Sz: 4096 	 Sm: 0 	 T: write_back(1.758947)
F:  2279793----T:  2282398 	 St: 80784000 Sz: 4096 	 Sm: 0 	 T: memcpy_h2d(1.758947)
F:  2280764----T:  2283369 	 St: 80484000 Sz: 4096 	 Sm: 0 	 T: write_back(1.758947)
F:  2282398----T:  2285003 	 St: 8078c000 Sz: 4096 	 Sm: 0 	 T: memcpy_h2d(1.758947)
F:  2283369----T:  2285974 	 St: 80694000 Sz: 4096 	 Sm: 0 	 T: write_back(1.758947)
F:  2285003----T:  2287608 	 St: 8078b000 Sz: 4096 	 Sm: 0 	 T: memcpy_h2d(1.758947)
F:  2285974----T:  2288579 	 St: 80485000 Sz: 4096 	 Sm: 0 	 T: write_back(1.758947)
F:  2287608----T:  2290213 	 St: 8078d000 Sz: 4096 	 Sm: 0 	 T: memcpy_h2d(1.758947)
F:  2288579----T:  2291184 	 St: 80695000 Sz: 4096 	 Sm: 0 	 T: write_back(1.758947)
F:  2290213----T:  2292818 	 St: 80792000 Sz: 4096 	 Sm: 0 	 T: memcpy_h2d(1.758947)
F:  2291184----T:  2293789 	 St: 80486000 Sz: 4096 	 Sm: 0 	 T: write_back(1.758947)
F:  2292818----T:  2295423 	 St: 80793000 Sz: 4096 	 Sm: 0 	 T: memcpy_h2d(1.758947)
F:  2293789----T:  2296394 	 St: 80696000 Sz: 4096 	 Sm: 0 	 T: write_back(1.758947)
F:  2295423----T:  2298028 	 St: 80788000 Sz: 4096 	 Sm: 0 	 T: memcpy_h2d(1.758947)
F:  2296394----T:  2298999 	 St: 80480000 Sz: 4096 	 Sm: 0 	 T: write_back(1.758947)
F:  2298028----T:  2300633 	 St: 80794000 Sz: 4096 	 Sm: 0 	 T: memcpy_h2d(1.758947)
F:  2298999----T:  2301604 	 St: 80690000 Sz: 4096 	 Sm: 0 	 T: write_back(1.758947)
F:  2300633----T:  2303238 	 St: 80790000 Sz: 4096 	 Sm: 0 	 T: memcpy_h2d(1.758947)
F:  2301604----T:  2304209 	 St: 80481000 Sz: 4096 	 Sm: 0 	 T: write_back(1.758947)
F:  2303238----T:  2305843 	 St: 8078f000 Sz: 4096 	 Sm: 0 	 T: memcpy_h2d(1.758947)
F:  2304209----T:  2306814 	 St: 80483000 Sz: 4096 	 Sm: 0 	 T: write_back(1.758947)
F:  2305843----T:  2308448 	 St: 8078e000 Sz: 4096 	 Sm: 0 	 T: memcpy_h2d(1.758947)
F:  2306814----T:  2309419 	 St: 80482000 Sz: 4096 	 Sm: 0 	 T: write_back(1.758947)
F:  2308448----T:  2311053 	 St: 80795000 Sz: 4096 	 Sm: 0 	 T: memcpy_h2d(1.758947)
F:  2309419----T:  2312024 	 St: 80691000 Sz: 4096 	 Sm: 0 	 T: write_back(1.758947)
F:  2311053----T:  2313658 	 St: 80797000 Sz: 4096 	 Sm: 0 	 T: memcpy_h2d(1.758947)
F:  2312024----T:  2314629 	 St: 80693000 Sz: 4096 	 Sm: 0 	 T: write_back(1.758947)
F:  2313658----T:  2316263 	 St: 80796000 Sz: 4096 	 Sm: 0 	 T: memcpy_h2d(1.758947)
F:  2314629----T:  2317234 	 St: 80692000 Sz: 4096 	 Sm: 0 	 T: write_back(1.758947)
F:  2316263----T:  2318868 	 St: 807a0000 Sz: 4096 	 Sm: 0 	 T: memcpy_h2d(1.758947)
F:  2317234----T:  2319839 	 St: 80487000 Sz: 4096 	 Sm: 0 	 T: write_back(1.758947)
F:  2318868----T:  2321473 	 St: 807a7000 Sz: 4096 	 Sm: 0 	 T: memcpy_h2d(1.758947)
F:  2319839----T:  2322444 	 St: 80697000 Sz: 4096 	 Sm: 0 	 T: write_back(1.758947)
F:  2321473----T:  2324078 	 St: 807ae000 Sz: 4096 	 Sm: 0 	 T: memcpy_h2d(1.758947)
F:  2322444----T:  2325049 	 St: 80488000 Sz: 4096 	 Sm: 0 	 T: write_back(1.758947)
F:  2324078----T:  2326683 	 St: 807af000 Sz: 4096 	 Sm: 0 	 T: memcpy_h2d(1.758947)
F:  2325049----T:  2327654 	 St: 80698000 Sz: 4096 	 Sm: 0 	 T: write_back(1.758947)
F:  2326683----T:  2329288 	 St: 80799000 Sz: 4096 	 Sm: 0 	 T: memcpy_h2d(1.758947)
F:  2327654----T:  2330259 	 St: 80489000 Sz: 4096 	 Sm: 0 	 T: write_back(1.758947)
F:  2329288----T:  2331893 	 St: 8079a000 Sz: 4096 	 Sm: 0 	 T: memcpy_h2d(1.758947)
F:  2330259----T:  2332864 	 St: 80699000 Sz: 4096 	 Sm: 0 	 T: write_back(1.758947)
F:  2331893----T:  2334498 	 St: 8079d000 Sz: 4096 	 Sm: 0 	 T: memcpy_h2d(1.758947)
F:  2332864----T:  2335469 	 St: 8048a000 Sz: 4096 	 Sm: 0 	 T: write_back(1.758947)
F:  2334498----T:  2337103 	 St: 8079b000 Sz: 4096 	 Sm: 0 	 T: memcpy_h2d(1.758947)
F:  2335469----T:  2338074 	 St: 8069a000 Sz: 4096 	 Sm: 0 	 T: write_back(1.758947)
F:  2337103----T:  2339708 	 St: 8079c000 Sz: 4096 	 Sm: 0 	 T: memcpy_h2d(1.758947)
F:  2338074----T:  2340679 	 St: 8048b000 Sz: 4096 	 Sm: 0 	 T: write_back(1.758947)
F:  2339708----T:  2342313 	 St: 807a5000 Sz: 4096 	 Sm: 0 	 T: memcpy_h2d(1.758947)
F:  2340679----T:  2343284 	 St: 8048c000 Sz: 4096 	 Sm: 0 	 T: write_back(1.758947)
F:  2342313----T:  2344918 	 St: 8079e000 Sz: 4096 	 Sm: 0 	 T: memcpy_h2d(1.758947)
F:  2343284----T:  2345889 	 St: 8069b000 Sz: 4096 	 Sm: 0 	 T: write_back(1.758947)
F:  2344918----T:  2347523 	 St: 807a3000 Sz: 4096 	 Sm: 0 	 T: memcpy_h2d(1.758947)
F:  2345889----T:  2348494 	 St: 8069c000 Sz: 4096 	 Sm: 0 	 T: write_back(1.758947)
F:  2347523----T:  2350128 	 St: 807a6000 Sz: 4096 	 Sm: 0 	 T: memcpy_h2d(1.758947)
F:  2348494----T:  2351099 	 St: 8048d000 Sz: 4096 	 Sm: 0 	 T: write_back(1.758947)
F:  2350128----T:  2352733 	 St: 807a1000 Sz: 4096 	 Sm: 0 	 T: memcpy_h2d(1.758947)
F:  2351099----T:  2353704 	 St: 8069d000 Sz: 4096 	 Sm: 0 	 T: write_back(1.758947)
F:  2352733----T:  2355338 	 St: 807a4000 Sz: 4096 	 Sm: 0 	 T: memcpy_h2d(1.758947)
F:  2353704----T:  2356309 	 St: 8048e000 Sz: 4096 	 Sm: 0 	 T: write_back(1.758947)
F:  2355338----T:  2357943 	 St: 807a2000 Sz: 4096 	 Sm: 0 	 T: memcpy_h2d(1.758947)
F:  2356309----T:  2358914 	 St: 8048f000 Sz: 4096 	 Sm: 0 	 T: write_back(1.758947)
F:  2357943----T:  2360548 	 St: 8079f000 Sz: 4096 	 Sm: 0 	 T: memcpy_h2d(1.758947)
F:  2358914----T:  2361519 	 St: 8069e000 Sz: 4096 	 Sm: 0 	 T: write_back(1.758947)
F:  2360548----T:  2363153 	 St: 807b1000 Sz: 4096 	 Sm: 0 	 T: memcpy_h2d(1.758947)
F:  2361519----T:  2364124 	 St: 8069f000 Sz: 4096 	 Sm: 0 	 T: write_back(1.758947)
F:  2363153----T:  2365758 	 St: 807b2000 Sz: 4096 	 Sm: 0 	 T: memcpy_h2d(1.758947)
F:  2364124----T:  2366729 	 St: 80490000 Sz: 4096 	 Sm: 0 	 T: write_back(1.758947)
F:  2365758----T:  2368363 	 St: 807ab000 Sz: 4096 	 Sm: 0 	 T: memcpy_h2d(1.758947)
F:  2366729----T:  2369334 	 St: 80210000 Sz: 4096 	 Sm: 0 	 T: write_back(1.758947)
F:  2368363----T:  2370968 	 St: 807aa000 Sz: 4096 	 Sm: 0 	 T: memcpy_h2d(1.758947)
F:  2369334----T:  2371939 	 St: 806a0000 Sz: 4096 	 Sm: 0 	 T: write_back(1.758947)
F:  2370968----T:  2373573 	 St: 807b0000 Sz: 4096 	 Sm: 0 	 T: memcpy_h2d(1.758947)
F:  2371939----T:  2374544 	 St: 80491000 Sz: 4096 	 Sm: 0 	 T: write_back(1.758947)
F:  2373573----T:  2376178 	 St: 807a9000 Sz: 4096 	 Sm: 0 	 T: memcpy_h2d(1.758947)
F:  2374544----T:  2377149 	 St: 806a1000 Sz: 4096 	 Sm: 0 	 T: write_back(1.758947)
F:  2376178----T:  2378783 	 St: 807ad000 Sz: 4096 	 Sm: 0 	 T: memcpy_h2d(1.758947)
F:  2377149----T:  2379754 	 St: 80492000 Sz: 4096 	 Sm: 0 	 T: write_back(1.758947)
F:  2378783----T:  2381388 	 St: 807ac000 Sz: 4096 	 Sm: 0 	 T: memcpy_h2d(1.758947)
F:  2379754----T:  2382359 	 St: 806a2000 Sz: 4096 	 Sm: 0 	 T: write_back(1.758947)
F:  2381388----T:  2383993 	 St: 807a8000 Sz: 4096 	 Sm: 0 	 T: memcpy_h2d(1.758947)
F:  2382359----T:  2384964 	 St: 80496000 Sz: 4096 	 Sm: 0 	 T: write_back(1.758947)
F:  2383993----T:  2386598 	 St: 807b3000 Sz: 4096 	 Sm: 0 	 T: memcpy_h2d(1.758947)
F:  2384964----T:  2387569 	 St: 806a6000 Sz: 4096 	 Sm: 0 	 T: write_back(1.758947)
F:  2386598----T:  2389203 	 St: 807b4000 Sz: 4096 	 Sm: 0 	 T: memcpy_h2d(1.758947)
F:  2387569----T:  2390174 	 St: 80493000 Sz: 4096 	 Sm: 0 	 T: write_back(1.758947)
F:  2389203----T:  2391808 	 St: 80572000 Sz: 4096 	 Sm: 0 	 T: memcpy_h2d(1.758947)
F:  2390174----T:  2392779 	 St: 80495000 Sz: 4096 	 Sm: 0 	 T: write_back(1.758947)
F:  2391808----T:  2394413 	 St: 807b5000 Sz: 4096 	 Sm: 0 	 T: memcpy_h2d(1.758947)
F:  2392779----T:  2395384 	 St: 80494000 Sz: 4096 	 Sm: 0 	 T: write_back(1.758947)
F:  2394413----T:  2397018 	 St: 807b6000 Sz: 4096 	 Sm: 0 	 T: memcpy_h2d(1.758947)
F:  2395384----T:  2397989 	 St: 806a3000 Sz: 4096 	 Sm: 0 	 T: write_back(1.758947)
F:  2397018----T:  2399623 	 St: 80579000 Sz: 4096 	 Sm: 0 	 T: memcpy_h2d(1.758947)
F:  2397989----T:  2400594 	 St: 806a5000 Sz: 4096 	 Sm: 0 	 T: write_back(1.758947)
F:  2399623----T:  2402228 	 St: 80581000 Sz: 4096 	 Sm: 0 	 T: memcpy_h2d(1.758947)
F:  2400594----T:  2403199 	 St: 806a4000 Sz: 4096 	 Sm: 0 	 T: write_back(1.758947)
F:  2402228----T:  2404833 	 St: 8057a000 Sz: 4096 	 Sm: 0 	 T: memcpy_h2d(1.758947)
F:  2403199----T:  2405804 	 St: 80497000 Sz: 4096 	 Sm: 0 	 T: write_back(1.758947)
F:  2404833----T:  2407438 	 St: 8056d000 Sz: 4096 	 Sm: 0 	 T: memcpy_h2d(1.758947)
F:  2405804----T:  2408409 	 St: 806a7000 Sz: 4096 	 Sm: 0 	 T: write_back(1.758947)
F:  2407438----T:  2410043 	 St: 8056e000 Sz: 4096 	 Sm: 0 	 T: memcpy_h2d(1.758947)
F:  2408409----T:  2411014 	 St: 80498000 Sz: 4096 	 Sm: 0 	 T: write_back(1.758947)
F:  2410043----T:  2412648 	 St: 8056c000 Sz: 4096 	 Sm: 0 	 T: memcpy_h2d(1.758947)
F:  2411014----T:  2413619 	 St: 806a8000 Sz: 4096 	 Sm: 0 	 T: write_back(1.758947)
F:  2412648----T:  2415253 	 St: 8056f000 Sz: 4096 	 Sm: 0 	 T: memcpy_h2d(1.758947)
F:  2413620----T:  2416225 	 St: 80499000 Sz: 4096 	 Sm: 0 	 T: write_back(1.758947)
F:  2415253----T:  2417858 	 St: 80570000 Sz: 4096 	 Sm: 0 	 T: memcpy_h2d(1.758947)
F:  2417858----T:  2420463 	 St: 80575000 Sz: 4096 	 Sm: 0 	 T: memcpy_h2d(1.758947)
F:  2420463----T:  2423068 	 St: 80576000 Sz: 4096 	 Sm: 0 	 T: memcpy_h2d(1.758947)
F:  2423068----T:  2425673 	 St: 80571000 Sz: 4096 	 Sm: 0 	 T: memcpy_h2d(1.758947)
F:  2425673----T:  2428278 	 St: 80577000 Sz: 4096 	 Sm: 0 	 T: memcpy_h2d(1.758947)
F:  2428278----T:  2430883 	 St: 80588000 Sz: 4096 	 Sm: 0 	 T: memcpy_h2d(1.758947)
F:  2430883----T:  2433488 	 St: 80573000 Sz: 4096 	 Sm: 0 	 T: memcpy_h2d(1.758947)
F:  2433488----T:  2436093 	 St: 80574000 Sz: 4096 	 Sm: 0 	 T: memcpy_h2d(1.758947)
F:  2436093----T:  2438698 	 St: 8057c000 Sz: 4096 	 Sm: 0 	 T: memcpy_h2d(1.758947)
F:  2438698----T:  2441303 	 St: 8057b000 Sz: 4096 	 Sm: 0 	 T: memcpy_h2d(1.758947)
F:  2441303----T:  2443908 	 St: 8057d000 Sz: 4096 	 Sm: 0 	 T: memcpy_h2d(1.758947)
F:  2443908----T:  2446513 	 St: 80582000 Sz: 4096 	 Sm: 0 	 T: memcpy_h2d(1.758947)
F:  2446513----T:  2449118 	 St: 80583000 Sz: 4096 	 Sm: 0 	 T: memcpy_h2d(1.758947)
F:  2449118----T:  2451723 	 St: 80578000 Sz: 4096 	 Sm: 0 	 T: memcpy_h2d(1.758947)
F:  2451723----T:  2454328 	 St: 80584000 Sz: 4096 	 Sm: 0 	 T: memcpy_h2d(1.758947)
F:  2454328----T:  2456933 	 St: 80580000 Sz: 4096 	 Sm: 0 	 T: memcpy_h2d(1.758947)
F:  2456933----T:  2459538 	 St: 8057f000 Sz: 4096 	 Sm: 0 	 T: memcpy_h2d(1.758947)
F:  2459538----T:  2462143 	 St: 8057e000 Sz: 4096 	 Sm: 0 	 T: memcpy_h2d(1.758947)
F:  2462143----T:  2464748 	 St: 80585000 Sz: 4096 	 Sm: 0 	 T: memcpy_h2d(1.758947)
F:  2464748----T:  2467353 	 St: 80587000 Sz: 4096 	 Sm: 0 	 T: memcpy_h2d(1.758947)
F:  2467353----T:  2469958 	 St: 80586000 Sz: 4096 	 Sm: 0 	 T: memcpy_h2d(1.758947)
F:  2469958----T:  2472563 	 St: 80590000 Sz: 4096 	 Sm: 0 	 T: memcpy_h2d(1.758947)
F:  2472563----T:  2475168 	 St: 80597000 Sz: 4096 	 Sm: 0 	 T: memcpy_h2d(1.758947)
F:  2475168----T:  2477773 	 St: 8059e000 Sz: 4096 	 Sm: 0 	 T: memcpy_h2d(1.758947)
F:  2477773----T:  2480378 	 St: 8059f000 Sz: 4096 	 Sm: 0 	 T: memcpy_h2d(1.758947)
F:  2480378----T:  2482983 	 St: 80589000 Sz: 4096 	 Sm: 0 	 T: memcpy_h2d(1.758947)
F:  2482983----T:  2485588 	 St: 8058a000 Sz: 4096 	 Sm: 0 	 T: memcpy_h2d(1.758947)
F:  2485588----T:  2488193 	 St: 8058d000 Sz: 4096 	 Sm: 0 	 T: memcpy_h2d(1.758947)
F:  2488193----T:  2490798 	 St: 8058b000 Sz: 4096 	 Sm: 0 	 T: memcpy_h2d(1.758947)
F:  2490798----T:  2493403 	 St: 8058c000 Sz: 4096 	 Sm: 0 	 T: memcpy_h2d(1.758947)
F:  2493403----T:  2496008 	 St: 80595000 Sz: 4096 	 Sm: 0 	 T: memcpy_h2d(1.758947)
F:  2496008----T:  2498613 	 St: 8058e000 Sz: 4096 	 Sm: 0 	 T: memcpy_h2d(1.758947)
F:  2498613----T:  2501218 	 St: 80593000 Sz: 4096 	 Sm: 0 	 T: memcpy_h2d(1.758947)
F:  2501218----T:  2503823 	 St: 80596000 Sz: 4096 	 Sm: 0 	 T: memcpy_h2d(1.758947)
F:  2503823----T:  2506428 	 St: 80591000 Sz: 4096 	 Sm: 0 	 T: memcpy_h2d(1.758947)
F:  2506428----T:  2509033 	 St: 80594000 Sz: 4096 	 Sm: 0 	 T: memcpy_h2d(1.758947)
F:  2509033----T:  2511638 	 St: 80592000 Sz: 4096 	 Sm: 0 	 T: memcpy_h2d(1.758947)
F:  2511638----T:  2514243 	 St: 8058f000 Sz: 4096 	 Sm: 0 	 T: memcpy_h2d(1.758947)
F:  2514243----T:  2516848 	 St: 805a1000 Sz: 4096 	 Sm: 0 	 T: memcpy_h2d(1.758947)
F:  2516848----T:  2519453 	 St: 805a2000 Sz: 4096 	 Sm: 0 	 T: memcpy_h2d(1.758947)
F:  2519453----T:  2522058 	 St: 8059b000 Sz: 4096 	 Sm: 0 	 T: memcpy_h2d(1.758947)
F:  2522058----T:  2524663 	 St: 8059a000 Sz: 4096 	 Sm: 0 	 T: memcpy_h2d(1.758947)
F:  2524663----T:  2527268 	 St: 805a0000 Sz: 4096 	 Sm: 0 	 T: memcpy_h2d(1.758947)
F:  2527268----T:  2529873 	 St: 80599000 Sz: 4096 	 Sm: 0 	 T: memcpy_h2d(1.758947)
F:  2529873----T:  2532478 	 St: 8059d000 Sz: 4096 	 Sm: 0 	 T: memcpy_h2d(1.758947)
F:  2532478----T:  2535083 	 St: 8059c000 Sz: 4096 	 Sm: 0 	 T: memcpy_h2d(1.758947)
F:  2535083----T:  2537688 	 St: 80598000 Sz: 4096 	 Sm: 0 	 T: memcpy_h2d(1.758947)
F:  2537688----T:  2540293 	 St: 805a3000 Sz: 4096 	 Sm: 0 	 T: memcpy_h2d(1.758947)
F:  2540293----T:  2542898 	 St: 805a4000 Sz: 4096 	 Sm: 0 	 T: memcpy_h2d(1.758947)
F:  2542898----T:  2545503 	 St: 805a5000 Sz: 4096 	 Sm: 0 	 T: memcpy_h2d(1.758947)
F:  2545503----T:  2548108 	 St: 805a6000 Sz: 4096 	 Sm: 0 	 T: memcpy_h2d(1.758947)
F:  2548629----T:  2551234 	 St: 807b7000 Sz: 4096 	 Sm: 0 	 T: memcpy_h2d(1.758947)
F:  2548629----T:  2551234 	 St: 806a9000 Sz: 4096 	 Sm: 0 	 T: write_back(1.758947)
F:  2551234----T:  2553839 	 St: 807b8000 Sz: 4096 	 Sm: 0 	 T: memcpy_h2d(1.758947)
F:  2551234----T:  2553839 	 St: 8049a000 Sz: 4096 	 Sm: 0 	 T: write_back(1.758947)
F:  2553839----T:  2556444 	 St: 807b9000 Sz: 4096 	 Sm: 0 	 T: memcpy_h2d(1.758947)
F:  2553839----T:  2556444 	 St: 8049b000 Sz: 4096 	 Sm: 0 	 T: write_back(1.758947)
F:  2556444----T:  2559049 	 St: 807ba000 Sz: 4096 	 Sm: 0 	 T: memcpy_h2d(1.758947)
F:  2556444----T:  2559049 	 St: 806aa000 Sz: 4096 	 Sm: 0 	 T: write_back(1.758947)
F:  2559049----T:  2561654 	 St: 805a7000 Sz: 4096 	 Sm: 0 	 T: memcpy_h2d(1.758947)
F:  2559049----T:  2561654 	 St: 806ab000 Sz: 4096 	 Sm: 0 	 T: write_back(1.758947)
F:  2561654----T:  2564259 	 St: 805a8000 Sz: 4096 	 Sm: 0 	 T: memcpy_h2d(1.758947)
F:  2561654----T:  2564259 	 St: 8049c000 Sz: 4096 	 Sm: 0 	 T: write_back(1.758947)
F:  2564259----T:  2566864 	 St: 805a9000 Sz: 4096 	 Sm: 0 	 T: memcpy_h2d(1.758947)
F:  2564259----T:  2566864 	 St: 8049d000 Sz: 4096 	 Sm: 0 	 T: write_back(1.758947)
F:  2566865----T:  2569470 	 St: 805aa000 Sz: 4096 	 Sm: 0 	 T: memcpy_h2d(1.758947)
F:  2566865----T:  2569470 	 St: 806ac000 Sz: 4096 	 Sm: 0 	 T: write_back(1.758947)
F:  2570459----T:  2573064 	 St: 0 Sz: 4096 	 Sm: 0 	 T: device_sync(1.758947)
F:  2570459----T:  2578699 	 St: 0 Sz: 61440 	 Sm: 0 	 T: device_sync(5.563808)
F:  2581304----T:  2583909 	 St: 0 Sz: 4096 	 Sm: 0 	 T: device_sync(1.758947)
F:  2581304----T:  2589544 	 St: 0 Sz: 61440 	 Sm: 0 	 T: device_sync(5.563808)
F:  2592149----T:  2594754 	 St: 0 Sz: 4096 	 Sm: 0 	 T: device_sync(1.758947)
F:  2592149----T:  2607844 	 St: 0 Sz: 126976 	 Sm: 0 	 T: device_sync(10.597569)
F:  2610449----T:  2613054 	 St: 0 Sz: 4096 	 Sm: 0 	 T: device_sync(1.758947)
F:  2610449----T:  2641172 	 St: 0 Sz: 258048 	 Sm: 0 	 T: device_sync(20.744766)
F:  2643777----T:  2646382 	 St: 0 Sz: 4096 	 Sm: 0 	 T: device_sync(1.758947)
F:  2643777----T:  2704613 	 St: 0 Sz: 520192 	 Sm: 0 	 T: device_sync(41.077652)
F:  2707218----T:  2709823 	 St: 0 Sz: 4096 	 Sm: 0 	 T: device_sync(1.758947)
F:  2707218----T:  2828307 	 St: 0 Sz: 1044480 	 Sm: 0 	 T: device_sync(81.761650)
F:  2830912----T:  2833517 	 St: 0 Sz: 4096 	 Sm: 0 	 T: device_sync(1.758947)
F:  2830912----T:  2837777 	 St: 0 Sz: 49152 	 Sm: 0 	 T: device_sync(4.635382)
Tot_prefetch_time: 0(cycle), 0.000000(us)
Tot_kernel_exec_time: 1972037(cycle), 1331.557739(us)
Tot_kernel_exec_time_and_fault_time: 42892067(cycle), 28961.558594(us)
Tot_memcpy_h2d_time: 1867097(cycle), 1260.700195(us)
Tot_memcpy_d2h_time: 0(cycle), 0.000000(us)
Tot_memcpy_time: 1867097(cycle), 1260.700195(us)
Tot_devicesync_time: 424045(cycle), 286.323425(us)
Tot_writeback_time: 281340(cycle), 189.966232(us)
Tot_rdma_time: 0(cycle), 0.000000(us)
Tot_memcpy_d2h_sync_wb_time: 705385(cycle), 476.289673(us)
GPGPU-Sim: *** exit detected ***
