

        *** GPGPU-Sim Simulator Version 3.2.2  [build gpgpu-sim_git-commit-031156e66de9d631709a7db882a973ad8f0cec52_modified_0] ***


GPGPU-Sim PTX: simulation mode 0 (can change with PTX_SIM_MODE_FUNC environment variable:
               1=functional simulation only, 0=detailed performance simulator)
GPGPU-Sim: Configuration options:

-network_mode                           1 # Interconnection network mode
-inter_config_file   config_fermi_islip.icnt # Interconnection network config file
-gpgpu_ptx_use_cuobjdump                    1 # Use cuobjdump to extract ptx and sass from binaries
-gpgpu_experimental_lib_support                    0 # Try to extract code from cuda libraries [Broken because of unknown cudaGetExportTable]
-gpgpu_ptx_convert_to_ptxplus                    0 # Convert SASS (native ISA) to ptxplus and run ptxplus
-gpgpu_ptx_force_max_capability                   20 # Force maximum compute capability
-gpgpu_ptx_inst_debug_to_file                    0 # Dump executed instructions' debug information to file
-gpgpu_ptx_inst_debug_file       inst_debug.txt # Executed instructions' debug output file
-gpgpu_ptx_inst_debug_thread_uid                    1 # Thread UID for executed instructions' debug output
-gpgpu_simd_model                       1 # 1 = post-dominator
-gpgpu_shader_core_pipeline              2048:32 # shader core pipeline config, i.e., {<nthread>:<warpsize>}
-gpgpu_tex_cache:l1  16:128:24,L:R:m:N:L,F:128:4,128:2 # per-shader L1 texture cache  (READ-ONLY) config  {<nsets>:<bsize>:<assoc>,<rep>:<wr>:<alloc>:<wr_alloc>,<mshr>:<N>:<merge>,<mq>:<rf>}
-gpgpu_const_cache:l1 128:64:2,L:R:f:N:L,A:2:64,4 # per-shader L1 constant memory cache  (READ-ONLY) config  {<nsets>:<bsize>:<assoc>,<rep>:<wr>:<alloc>:<wr_alloc>,<mshr>:<N>:<merge>,<mq>} 
-gpgpu_cache:il1     8:128:4,L:R:f:N:L,A:2:48,4 # shader L1 instruction cache config  {<nsets>:<bsize>:<assoc>,<rep>:<wr>:<alloc>:<wr_alloc>,<mshr>:<N>:<merge>,<mq>} 
-gpgpu_cache:dl1     64:128:6,L:L:m:N:H,A:128:8,8 # per-shader L1 data cache config  {<nsets>:<bsize>:<assoc>,<rep>:<wr>:<alloc>:<wr_alloc>,<mshr>:<N>:<merge>,<mq> | none}
-gpgpu_cache:dl1PrefL1                 none # per-shader L1 data cache config  {<nsets>:<bsize>:<assoc>,<rep>:<wr>:<alloc>:<wr_alloc>,<mshr>:<N>:<merge>,<mq> | none}
-gpgpu_cache:dl1PrefShared                 none # per-shader L1 data cache config  {<nsets>:<bsize>:<assoc>,<rep>:<wr>:<alloc>:<wr_alloc>,<mshr>:<N>:<merge>,<mq> | none}
-gmem_skip_L1D                          1 # global memory access skip L1D cache (implements -Xptxas -dlcm=cg, default=no skip)
-gpgpu_perfect_mem                      0 # enable perfect memory mode (no cache miss)
-n_regfile_gating_group                    4 # group of lanes that should be read/written together)
-gpgpu_clock_gated_reg_file                    0 # enable clock gated reg file for power calculations
-gpgpu_clock_gated_lanes                    0 # enable clock gated lanes for power calculations
-gpgpu_shader_registers                65536 # Number of registers per shader core. Limits number of concurrent CTAs. (default 8192)
-gpgpu_shader_cta                      32 # Maximum number of concurrent CTAs in shader (default 8)
-gpgpu_num_cta_barriers                   16 # Maximum number of named barriers per CTA (default 16)
-gpgpu_n_clusters                      28 # number of processing clusters
-gpgpu_n_cores_per_cluster                    1 # number of simd cores per cluster
-gpgpu_n_cluster_ejection_buffer_size                    8 # number of packets in ejection buffer
-gpgpu_n_ldst_response_buffer_size                    2 # number of response packets in ld/st unit ejection buffer
-gpgpu_shmem_size                   16384 # Size of shared memory per shader core (default 16kB)
-gpgpu_shmem_size                   98304 # Size of shared memory per shader core (default 16kB)
-gpgpu_shmem_size_PrefL1                16384 # Size of shared memory per shader core (default 16kB)
-gpgpu_shmem_size_PrefShared                16384 # Size of shared memory per shader core (default 16kB)
-gpgpu_shmem_num_banks                   32 # Number of banks in the shared memory in each shader core (default 16)
-gpgpu_shmem_limited_broadcast                    0 # Limit shared memory to do one broadcast per cycle (default on)
-gpgpu_shmem_warp_parts                    1 # Number of portions a warp is divided into for shared memory bank conflict check 
-gpgpu_warpdistro_shader                   -1 # Specify which shader core to collect the warp size distribution from
-gpgpu_warp_issue_shader                    0 # Specify which shader core to collect the warp issue distribution from
-gpgpu_local_mem_map                    1 # Mapping from local memory space address to simulated GPU physical address space (default = enabled)
-gpgpu_num_reg_banks                   32 # Number of register banks (default = 8)
-gpgpu_reg_bank_use_warp_id                    0 # Use warp ID in mapping registers to banks (default = off)
-gpgpu_operand_collector_num_units_sp                   20 # number of collector units (default = 4)
-gpgpu_operand_collector_num_units_sfu                    4 # number of collector units (default = 4)
-gpgpu_operand_collector_num_units_mem                    8 # number of collector units (default = 2)
-gpgpu_operand_collector_num_units_gen                    0 # number of collector units (default = 0)
-gpgpu_operand_collector_num_in_ports_sp                    4 # number of collector unit in ports (default = 1)
-gpgpu_operand_collector_num_in_ports_sfu                    1 # number of collector unit in ports (default = 1)
-gpgpu_operand_collector_num_in_ports_mem                    1 # number of collector unit in ports (default = 1)
-gpgpu_operand_collector_num_in_ports_gen                    0 # number of collector unit in ports (default = 0)
-gpgpu_operand_collector_num_out_ports_sp                    4 # number of collector unit in ports (default = 1)
-gpgpu_operand_collector_num_out_ports_sfu                    1 # number of collector unit in ports (default = 1)
-gpgpu_operand_collector_num_out_ports_mem                    1 # number of collector unit in ports (default = 1)
-gpgpu_operand_collector_num_out_ports_gen                    0 # number of collector unit in ports (default = 0)
-gpgpu_coalesce_arch                   13 # Coalescing arch (default = 13, anything else is off for now)
-gpgpu_num_sched_per_core                    2 # Number of warp schedulers per core
-gpgpu_max_insn_issue_per_warp                    2 # Max number of instructions that can be issued per warp in one cycle by scheduler
-gpgpu_simt_core_sim_order                    1 # Select the simulation order of cores in a cluster (0=Fix, 1=Round-Robin)
-gpgpu_pipeline_widths        4,1,1,4,1,1,6 # Pipeline widths ID_OC_SP,ID_OC_SFU,ID_OC_MEM,OC_EX_SP,OC_EX_SFU,OC_EX_MEM,EX_WB
-gpgpu_num_sp_units                     4 # Number of SP units (default=1)
-gpgpu_num_sfu_units                    1 # Number of SF units (default=1)
-gpgpu_num_mem_units                    1 # Number if ldst units (default=1) WARNING: not hooked up to anything
-gpgpu_scheduler                      gto # Scheduler configuration: < lrr | gto | two_level_active > If two_level_active:<num_active_warps>:<inner_prioritization>:<outer_prioritization>For complete list of prioritization values see shader.h enum scheduler_prioritization_typeDefault: gto
-gpgpu_concurrent_kernel_sm                    0 # Support concurrent kernels on a SM (default = disabled)
-tlb_size                            4096 # Number of tlb entries per SM.
-gpgpu_dram_scheduler                    1 # 0 = fifo, 1 = FR-FCFS (defaul)
-gpgpu_dram_partition_queues              8:8:8:8 # i2$:$2d:d2$:$2i
-l2_ideal                               0 # Use a ideal L2 cache that always hit
-gpgpu_cache:dl2     64:128:16,L:B:m:W:L,A:1024:1024,4:0,32 # unified banked L2 data cache config  {<nsets>:<bsize>:<assoc>,<rep>:<wr>:<alloc>:<wr_alloc>,<mshr>:<N>:<merge>,<mq>}
-gpgpu_cache:dl2_texture_only                    0 # L2 cache used for texture only
-gpgpu_n_mem                           11 # number of memory modules (e.g. memory controllers) in gpu
-gpgpu_n_sub_partition_per_mchannel                    2 # number of memory subpartition in each memory module
-gpgpu_n_mem_per_ctrlr                    1 # number of memory chips per memory controller
-gpgpu_memlatency_stat                   14 # track and display latency statistics 0x2 enables MC, 0x4 enables queue logs
-gpgpu_frfcfs_dram_sched_queue_size                   64 # 0 = unlimited (default); # entries per chip
-gpgpu_dram_return_queue_size                  116 # 0 = unlimited (default); # entries per chip
-gpgpu_dram_buswidth                    4 # default = 4 bytes (8 bytes per cycle at DDR)
-gpgpu_dram_burst_length                    8 # Burst length of each DRAM request (default = 4 data bus cycle)
-dram_data_command_freq_ratio                    4 # Frequency ratio between DRAM data bus and command bus (default = 2 times, i.e. DDR)
-gpgpu_dram_timing_opt nbk=16:CCD=2:RRD=6:RCD=12:RAS=28:RP=12:RC=40: CL=12:WL=4:CDLR=5:WR=12:nbkgrp=1:CCDL=0:RTPL=0 # DRAM timing parameters = {nbk:tCCD:tRRD:tRCD:tRAS:tRP:tRC:CL:WL:tCDLR:tWR:nbkgrp:tCCDL:tRTPL}
-rop_latency                          120 # ROP queue latency (default 85)
-dram_latency                         100 # DRAM latency (default 30)
-gpgpu_mem_addr_mapping dramid@8;00000000.00000000.00000000.00000000.0000RRRR.RRRRRRRR.RBBBCCCC.BCCSSSSS # mapping memory address to dram model {dramid@<start bit>;<memory address map>}
-gpgpu_mem_addr_test                    0 # run sweep test to check address mapping for aliased address
-gpgpu_mem_address_mask                    1 # 0 = old addressing mask, 1 = new addressing mask, 2 = new add. mask + flipped bank sel and chip sel bits
-gpuwattch_xml_file  gpuwattch_geforcegtx1080ti.xml # GPUWattch XML file
-power_simulation_enabled                    1 # Turn on power simulator (1=On, 0=Off)
-power_per_cycle_dump                    0 # Dump detailed power output each cycle
-power_trace_enabled                    0 # produce a file for the power trace (1=On, 0=Off)
-power_trace_zlevel                     6 # Compression level of the power trace output log (0=no comp, 9=highest)
-steady_power_levels_enabled                    0 # produce a file for the steady power levels (1=On, 0=Off)
-steady_state_definition                  8:4 # allowed deviation:number of samples
-gpgpu_max_cycle                        0 # terminates gpu simulation early (0 = no limit)
-gpgpu_max_insn                         0 # terminates gpu simulation early (0 = no limit)
-gpgpu_max_cta                          0 # terminates gpu simulation early (0 = no limit)
-gpgpu_runtime_stat                   500 # display runtime statistics such as dram utilization {<freq>:<flag>}
-liveness_message_freq                    1 # Minimum number of seconds between simulation liveness messages (0 = always print)
-gpgpu_flush_l1_cache                    0 # Flush L1 cache at the end of each kernel call
-gpgpu_flush_l2_cache                    0 # Flush L2 cache at the end of each kernel call
-gpgpu_deadlock_detect                    0 # Stop the simulation at deadlock (1=on (default), 0=off)
-gpgpu_ptx_instruction_classification                    0 # if enabled will classify ptx instruction types per kernel (Max 255 kernels now)
-gpgpu_ptx_sim_mode                     0 # Select between Performance (default) or Functional simulation (1)
-gpgpu_clock_domains 1481.0:2962.0:1481.0:2750.0 # Clock Domain Frequencies in MhZ {<Core Clock>:<ICNT Clock>:<L2 Clock>:<DRAM Clock>}
-gpgpu_max_concurrent_kernel                    8 # maximum kernels that can run concurrently on GPU
-gpgpu_cflog_interval                    0 # Interval between each snapshot in control flow logger
-visualizer_enabled                     0 # Turn on visualizer output (1=On, 0=Off)
-visualizer_outputfile                 NULL # Specifies the output log file for visualizer
-visualizer_zlevel                      6 # Compression level of the visualizer output log (0=no comp, 9=highest)
-trace_enabled                          0 # Turn on traces
-trace_components                    none # comma seperated list of traces to enable. Complete list found in trace_streams.tup. Default none
-trace_sampling_core                    0 # The core which is printed using CORE_DPRINTF. Default 0
-trace_sampling_memory_partition                   -1 # The memory partition which is printed using MEMPART_DPRINTF. Default -1 (i.e. all)
-gddr_size                         2.08MB # Size of GDDR in MB/GB.(GLOBAL_HEAP_START, GLOBAL_HEAP_START + gddr_size) would be used for unmanged memory, (GLOBAL_HEAP_START + gddr_size, GLOBAL_HEAP_START + gddr_size*2) would be used for managed memory. 
-page_table_walk_latency                  100 # Average page table walk latency (in core cycle).
-eviction_policy                        0 # Select page eviction policy
-reserve_accessed_page_percent                    0 # Percentage of accessed pages reserved from eviction in hope that they will be accessed in next iteration.
-percentage_of_free_page_buffer                    0 # Percentage of free page buffer to trigger the page eviction.
-page_size                            4KB # GDDR page size, only 4KB/2MB avaliable.
-pcie_bandwidth                  16.0GB/s # PCI-e bandwidth per direction, in GB/s.
-enable_nvlink                          0 # Enable nvlink 2.0, 150.0GB/s
-enable_rdma                            0 # Enable remote direct memory access
-migrate_threshold                     10 # Access counter threshold for migrating the page from cpu to gpu
-sim_prof_enable                        1 # Enable gpgpu-sim profiler
-hardware_prefetch                      1 # Select gpgpu-sim hardware prefetcher
-hwprefetch_oversub                     0 # Select gpgpu-sim hardware prefetcher under over-subscription
-page_fault_latency                 66645 # Average fault latency (in core cycle).
-enable_accurate_simulation                    0 # Enable page fault functional simulation.
-enable_ptx_file_line_stats                    1 # Turn on PTX source line statistic profiling. (1 = On)
-ptx_line_stats_filename gpgpu_inst_stats.txt # Output file for PTX source line statistics.
-gpgpu_kernel_launch_latency               222150 # Kernel launch latency in cycles. Default: 0
-gpgpu_cdp_enabled                      0 # Turn on CDP
-save_embedded_ptx                      0 # saves ptx files embedded in binary as <n>.ptx
-keep                                   0 # keep intermediate files created by GPGPU-Sim when interfacing with external programs
-gpgpu_ptx_save_converted_ptxplus                    0 # Saved converted ptxplus to a file
-ptx_opcode_latency_int         4,13,4,5,145 # Opcode latencies for integers <ADD,MAX,MUL,MAD,DIV>Default 1,1,19,25,145
-ptx_opcode_latency_fp          4,13,4,5,39 # Opcode latencies for single precision floating points <ADD,MAX,MUL,MAD,DIV>Default 1,1,1,1,30
-ptx_opcode_latency_dp         8,19,8,8,330 # Opcode latencies for double precision floating points <ADD,MAX,MUL,MAD,DIV>Default 8,8,8,8,335
-ptx_opcode_initiation_int            1,2,2,2,8 # Opcode initiation intervals for integers <ADD,MAX,MUL,MAD,DIV>Default 1,1,4,4,32
-ptx_opcode_initiation_fp            1,2,1,1,4 # Opcode initiation intervals for single precision floating points <ADD,MAX,MUL,MAD,DIV>Default 1,1,1,1,5
-ptx_opcode_initiation_dp          1,2,1,1,130 # Opcode initiation intervals for double precision floating points <ADD,MAX,MUL,MAD,DIV>Default 8,8,8,8,130
-cdp_latency         7200,8000,100,12000,1600 # CDP API latency <cudaStreamCreateWithFlags, cudaGetParameterBufferV2_init_perWarp, cudaGetParameterBufferV2_perKernel, cudaLaunchDeviceV2_init_perWarp, cudaLaunchDevicV2_perKernel>Default 7200,8000,100,12000,1600
DRAM Timing Options:
nbk                                    16 # number of banks
CCD                                     2 # column to column delay
RRD                                     6 # minimal delay between activation of rows in different banks
RCD                                    12 # row to column delay
RAS                                    28 # time needed to activate row
RP                                     12 # time needed to precharge (deactivate) row
RC                                     40 # row cycle time
CDLR                                    5 # switching from write to read (changes tWTR)
WR                                     12 # last data-in to row precharge
CL                                     12 # CAS latency
WL                                      4 # Write latency
nbkgrp                                  1 # number of bank groups
CCDL                                    0 # column to column delay between accesses to different bank groups
RTPL                                    0 # read to precharge delay between accesses to different bank groups
Total number of memory sub partition = 22
addr_dec_mask[CHIP]  = 0000000000000000 	high:64 low:0
addr_dec_mask[BK]    = 0000000000007080 	high:15 low:7
addr_dec_mask[ROW]   = 000000000fff8000 	high:28 low:15
addr_dec_mask[COL]   = 0000000000000f7f 	high:12 low:0
addr_dec_mask[BURST] = 000000000000001f 	high:5 low:0
sub_partition_id_mask = 0000000000000080
GPGPU-Sim uArch: clock freqs: 1481000000.000000:2962000000.000000:1481000000.000000:2750000000.000000
GPGPU-Sim uArch: clock periods: 0.00000000067521944632:0.00000000033760972316:0.00000000067521944632:0.00000000036363636364
*** Initializing Memory Statistics ***
GPGPU-Sim uArch: interconnect node map (shaderID+MemID to icntID)
GPGPU-Sim uArch: Memory nodes ID start from index: 28
GPGPU-Sim uArch:    0   1   2   3   4   5   6
GPGPU-Sim uArch:    7   8   9  10  11  12  13
GPGPU-Sim uArch:   14  15  16  17  18  19  20
GPGPU-Sim uArch:   21  22  23  24  25  26  27
GPGPU-Sim uArch:   28  29  30  31  32  33  34
GPGPU-Sim uArch:   35  36  37  38  39  40  41
GPGPU-Sim uArch:   42  43  44  45  46  47  48
GPGPU-Sim uArch:   49
GPGPU-Sim uArch: interconnect node reverse map (icntID to shaderID+MemID)
GPGPU-Sim uArch: Memory nodes start from ID: 28
GPGPU-Sim uArch:    0   1   2   3   4   5   6
GPGPU-Sim uArch:    7   8   9  10  11  12  13
GPGPU-Sim uArch:   14  15  16  17  18  19  20
GPGPU-Sim uArch:   21  22  23  24  25  26  27
GPGPU-Sim uArch:   28  29  30  31  32  33  34
GPGPU-Sim uArch:   35  36  37  38  39  40  41
GPGPU-Sim uArch:   42  43  44  45  46  47  48
GPGPU-Sim uArch:   49
8fec329691f41713f50dcf8bc0c1af16  /home/gpuser/Desktop/gpgpu-sim_UVMSmart/benchmarks/Managed/bfs/bfs
GPGPU-Sim uArch: performance model initialization complete.
GPGPU-Sim PTX: __cudaRegisterFatBinary, fat_cubin_handle = 1, filename=default
self exe links to: /home/gpuser/Desktop/gpgpu-sim_UVMSmart/benchmarks/Managed/bfs/bfs
Running md5sum using "md5sum /home/gpuser/Desktop/gpgpu-sim_UVMSmart/benchmarks/Managed/bfs/bfs "
Parsing file _cuobjdump_complete_output_i72qpR
######### cuobjdump parser ########
## Adding new section ELF
Adding arch: sm_20
Adding identifier: default
## Adding new section ELF
Adding arch: sm_20
Adding identifier: default
## Adding new section PTX
Adding ptx filename: _cuobjdump_1.ptx
Adding arch: sm_20
Adding identifier: default
Done parsing!!!
GPGPU-Sim PTX: __cudaRegisterFunction _Z7Kernel2PbS_S_S_i : hostFun 0x0x401649, fat_cubin_handle = 1
GPGPU-Sim PTX: instruction assembly for function '_Z6KernelP4NodePiPbS2_S2_S1_i'...   done.
GPGPU-Sim PTX: finding reconvergence points for '_Z6KernelP4NodePiPbS2_S2_S1_i'...
GPGPU-Sim PTX: Finding dominators for '_Z6KernelP4NodePiPbS2_S2_S1_i'...
GPGPU-Sim PTX: Finding immediate dominators for '_Z6KernelP4NodePiPbS2_S2_S1_i'...
GPGPU-Sim PTX: Finding postdominators for '_Z6KernelP4NodePiPbS2_S2_S1_i'...
GPGPU-Sim PTX: Finding immediate postdominators for '_Z6KernelP4NodePiPbS2_S2_S1_i'...
GPGPU-Sim PTX: pre-decoding instructions for '_Z6KernelP4NodePiPbS2_S2_S1_i'...
GPGPU-Sim PTX: reconvergence points for _Z6KernelP4NodePiPbS2_S2_S1_i...
GPGPU-Sim PTX:  1 (potential) branch divergence @  PC=0x060 (_1.ptx:42) @%p1 bra BB0_7;
GPGPU-Sim PTX:    immediate post dominator      @  PC=0x1e8 (_1.ptx:101) ret;
GPGPU-Sim PTX:  2 (potential) branch divergence @  PC=0x090 (_1.ptx:49) @%p2 bra BB0_7;
GPGPU-Sim PTX:    immediate post dominator      @  PC=0x1e8 (_1.ptx:101) ret;
GPGPU-Sim PTX:  3 (potential) branch divergence @  PC=0x0d8 (_1.ptx:59) @%p3 bra BB0_7;
GPGPU-Sim PTX:    immediate post dominator      @  PC=0x1e8 (_1.ptx:101) ret;
GPGPU-Sim PTX:  4 (potential) branch divergence @  PC=0x160 (_1.ptx:79) @%p4 bra BB0_6;
GPGPU-Sim PTX:    immediate post dominator      @  PC=0x1b8 (_1.ptx:93) mov.u32 %r24, %r25;
GPGPU-Sim PTX:  5 (potential) branch divergence @  PC=0x1e0 (_1.ptx:98) @%p5 bra BB0_4;
GPGPU-Sim PTX:    immediate post dominator      @  PC=0x1e8 (_1.ptx:101) ret;
GPGPU-Sim PTX: ... end of reconvergence points for _Z6KernelP4NodePiPbS2_S2_S1_i
GPGPU-Sim PTX: ... done pre-decoding instructions for '_Z6KernelP4NodePiPbS2_S2_S1_i'.
GPGPU-Sim PTX: instruction assembly for function '_Z7Kernel2PbS_S_S_i'...   done.
GPGPU-Sim PTX: finding reconvergence points for '_Z7Kernel2PbS_S_S_i'...
GPGPU-Sim PTX: Finding dominators for '_Z7Kernel2PbS_S_S_i'...
GPGPU-Sim PTX: Finding immediate dominators for '_Z7Kernel2PbS_S_S_i'...
GPGPU-Sim PTX: Finding postdominators for '_Z7Kernel2PbS_S_S_i'...
GPGPU-Sim PTX: Finding immediate postdominators for '_Z7Kernel2PbS_S_S_i'...
GPGPU-Sim PTX: pre-decoding instructions for '_Z7Kernel2PbS_S_S_i'...
GPGPU-Sim PTX: reconvergence points for _Z7Kernel2PbS_S_S_i...
GPGPU-Sim PTX:  1 (potential) branch divergence @  PC=0x240 (_1.ptx:129) @%p1 bra BB1_3;
GPGPU-Sim PTX:    immediate post dominator      @  PC=0x2d0 (_1.ptx:151) ret;
GPGPU-Sim PTX:  2 (potential) branch divergence @  PC=0x270 (_1.ptx:136) @%p2 bra BB1_3;
GPGPU-Sim PTX:    immediate post dominator      @  PC=0x2d0 (_1.ptx:151) ret;
GPGPU-Sim PTX: ... end of reconvergence points for _Z7Kernel2PbS_S_S_i
GPGPU-Sim PTX: ... done pre-decoding instructions for '_Z7Kernel2PbS_S_S_i'.
GPGPU-Sim PTX: finished parsing EMBEDDED .ptx file _1.ptx
Adding _cuobjdump_1.ptx with cubin handle 1
GPGPU-Sim PTX: extracting embedded .ptx to temporary file "_ptx_DYv57f"
Running: cat _ptx_DYv57f | sed 's/.version 1.5/.version 1.4/' | sed 's/, texmode_independent//' | sed 's/\(\.extern \.const\[1\] .b8 \w\+\)\[\]/\1\[1\]/' | sed 's/const\[.\]/const\[0\]/g' > _ptx2_OMXKQE
GPGPU-Sim PTX: generating ptxinfo using "$CUDA_INSTALL_PATH/bin/ptxas --gpu-name=sm_20 -v _ptx2_OMXKQE --output-file  /dev/null 2> _ptx_DYv57finfo"
GPGPU-Sim PTX: Kernel '_Z7Kernel2PbS_S_S_i' : regs=12, lmem=0, smem=0, cmem=68
GPGPU-Sim PTX: Kernel '_Z6KernelP4NodePiPbS2_S2_S1_i' : regs=15, lmem=0, smem=0, cmem=84
GPGPU-Sim PTX: removing ptxinfo using "rm -f _ptx_DYv57f _ptx2_OMXKQE _ptx_DYv57finfo"
GPGPU-Sim PTX: loading globals with explicit initializers... 
GPGPU-Sim PTX: finished loading globals (0 bytes total).
GPGPU-Sim PTX: loading constants with explicit initializers...  done.
GPGPU-Sim PTX: __cudaRegisterFunction _Z6KernelP4NodePiPbS2_S2_S1_i : hostFun 0x0x401519, fat_cubin_handle = 1
Reading File
Read File
Copied Everything to GPU memory
Start traversing the tree

GPGPU-Sim PTX: cudaLaunch for 0x0x401519 (mode=performance simulation) on stream 0
GPGPU-Sim PTX: pushing kernel '_Z6KernelP4NodePiPbS2_S2_S1_i' to stream 0, gridDim= (128,1,1) blockDim = (512,1,1) 
GPGPU-Sim uArch: Shader 1 bind to kernel 1 '_Z6KernelP4NodePiPbS2_S2_S1_i'
GPGPU-Sim uArch: CTA/core = 4, limited by: threads
GPGPU-Sim uArch: Shader 2 bind to kernel 1 '_Z6KernelP4NodePiPbS2_S2_S1_i'
GPGPU-Sim uArch: Shader 3 bind to kernel 1 '_Z6KernelP4NodePiPbS2_S2_S1_i'
GPGPU-Sim uArch: Shader 4 bind to kernel 1 '_Z6KernelP4NodePiPbS2_S2_S1_i'
GPGPU-Sim uArch: Shader 5 bind to kernel 1 '_Z6KernelP4NodePiPbS2_S2_S1_i'
GPGPU-Sim uArch: Shader 6 bind to kernel 1 '_Z6KernelP4NodePiPbS2_S2_S1_i'
GPGPU-Sim uArch: Shader 7 bind to kernel 1 '_Z6KernelP4NodePiPbS2_S2_S1_i'
GPGPU-Sim uArch: Shader 8 bind to kernel 1 '_Z6KernelP4NodePiPbS2_S2_S1_i'
GPGPU-Sim uArch: Shader 9 bind to kernel 1 '_Z6KernelP4NodePiPbS2_S2_S1_i'
GPGPU-Sim uArch: Shader 10 bind to kernel 1 '_Z6KernelP4NodePiPbS2_S2_S1_i'
GPGPU-Sim uArch: Shader 11 bind to kernel 1 '_Z6KernelP4NodePiPbS2_S2_S1_i'
GPGPU-Sim uArch: Shader 12 bind to kernel 1 '_Z6KernelP4NodePiPbS2_S2_S1_i'
GPGPU-Sim uArch: Shader 13 bind to kernel 1 '_Z6KernelP4NodePiPbS2_S2_S1_i'
GPGPU-Sim uArch: Shader 14 bind to kernel 1 '_Z6KernelP4NodePiPbS2_S2_S1_i'
GPGPU-Sim uArch: Shader 15 bind to kernel 1 '_Z6KernelP4NodePiPbS2_S2_S1_i'
GPGPU-Sim uArch: Shader 16 bind to kernel 1 '_Z6KernelP4NodePiPbS2_S2_S1_i'
GPGPU-Sim uArch: Shader 17 bind to kernel 1 '_Z6KernelP4NodePiPbS2_S2_S1_i'
GPGPU-Sim uArch: Shader 18 bind to kernel 1 '_Z6KernelP4NodePiPbS2_S2_S1_i'
GPGPU-Sim uArch: Shader 19 bind to kernel 1 '_Z6KernelP4NodePiPbS2_S2_S1_i'
GPGPU-Sim uArch: Shader 20 bind to kernel 1 '_Z6KernelP4NodePiPbS2_S2_S1_i'
GPGPU-Sim uArch: Shader 21 bind to kernel 1 '_Z6KernelP4NodePiPbS2_S2_S1_i'
GPGPU-Sim uArch: Shader 22 bind to kernel 1 '_Z6KernelP4NodePiPbS2_S2_S1_i'
GPGPU-Sim uArch: Shader 23 bind to kernel 1 '_Z6KernelP4NodePiPbS2_S2_S1_i'
GPGPU-Sim uArch: Shader 24 bind to kernel 1 '_Z6KernelP4NodePiPbS2_S2_S1_i'
GPGPU-Sim uArch: Shader 25 bind to kernel 1 '_Z6KernelP4NodePiPbS2_S2_S1_i'
GPGPU-Sim uArch: Shader 26 bind to kernel 1 '_Z6KernelP4NodePiPbS2_S2_S1_i'
GPGPU-Sim uArch: Shader 27 bind to kernel 1 '_Z6KernelP4NodePiPbS2_S2_S1_i'
GPGPU-Sim uArch: Shader 0 bind to kernel 1 '_Z6KernelP4NodePiPbS2_S2_S1_i'
GPGPU-Sim uArch: Shader 2 bind to kernel 1 '_Z6KernelP4NodePiPbS2_S2_S1_i'
GPGPU-Sim uArch: Shader 3 bind to kernel 1 '_Z6KernelP4NodePiPbS2_S2_S1_i'
GPGPU-Sim uArch: Shader 4 bind to kernel 1 '_Z6KernelP4NodePiPbS2_S2_S1_i'
GPGPU-Sim uArch: Shader 5 bind to kernel 1 '_Z6KernelP4NodePiPbS2_S2_S1_i'
GPGPU-Sim uArch: Shader 6 bind to kernel 1 '_Z6KernelP4NodePiPbS2_S2_S1_i'
GPGPU-Sim uArch: Shader 7 bind to kernel 1 '_Z6KernelP4NodePiPbS2_S2_S1_i'
GPGPU-Sim uArch: Shader 8 bind to kernel 1 '_Z6KernelP4NodePiPbS2_S2_S1_i'
GPGPU-Sim uArch: Shader 9 bind to kernel 1 '_Z6KernelP4NodePiPbS2_S2_S1_i'
GPGPU-Sim uArch: Shader 10 bind to kernel 1 '_Z6KernelP4NodePiPbS2_S2_S1_i'
GPGPU-Sim uArch: Shader 11 bind to kernel 1 '_Z6KernelP4NodePiPbS2_S2_S1_i'
GPGPU-Sim uArch: Shader 12 bind to kernel 1 '_Z6KernelP4NodePiPbS2_S2_S1_i'
GPGPU-Sim uArch: Shader 13 bind to kernel 1 '_Z6KernelP4NodePiPbS2_S2_S1_i'
GPGPU-Sim uArch: Shader 14 bind to kernel 1 '_Z6KernelP4NodePiPbS2_S2_S1_i'
GPGPU-Sim uArch: Shader 15 bind to kernel 1 '_Z6KernelP4NodePiPbS2_S2_S1_i'
GPGPU-Sim uArch: Shader 16 bind to kernel 1 '_Z6KernelP4NodePiPbS2_S2_S1_i'
Destroy streams for kernel 1: size 0
kernel_name = _Z6KernelP4NodePiPbS2_S2_S1_i 
kernel_launch_uid = 1 
gpu_sim_cycle = 93089
gpu_sim_insn = 1245376
gpu_ipc =      13.3783
gpu_tot_sim_cycle = 317775
gpu_tot_sim_insn = 1245376
gpu_tot_ipc =       3.9190
gpu_tot_issued_cta = 128
max_total_param_size = 0
gpu_stall_dramfull = 0
gpu_stall_icnt2sh    = 2544
partiton_reqs_in_parallel = 2047958
partiton_reqs_in_parallel_total    = 0
partiton_level_parallism =      22.0000
partiton_level_parallism_total  =       6.4447
partiton_reqs_in_parallel_util = 2047958
partiton_reqs_in_parallel_util_total    = 0
gpu_sim_cycle_parition_util = 93089
gpu_tot_sim_cycle_parition_util    = 0
partiton_level_parallism_util =      22.0000
partiton_level_parallism_util_total  =      22.0000
partiton_replys_in_parallel = 2220
partiton_replys_in_parallel_total    = 0
L2_BW  =       2.2604 GB/Sec
L2_BW_total  =       0.6622 GB/Sec
gpu_total_sim_rate=9293

========= Core cache stats =========
L1I_cache:
	L1I_total_cache_accesses = 22632
	L1I_total_cache_misses = 2778
	L1I_total_cache_miss_rate = 0.1227
	L1I_total_cache_pending_hits = 0
	L1I_total_cache_reservation_fails = 6846
L1D_cache:
	L1D_cache_core[0]: Access = 0, Miss = 0, Miss_rate = -nan, Pending_hits = 0, Reservation_fails = 0
	L1D_cache_core[1]: Access = 0, Miss = 0, Miss_rate = -nan, Pending_hits = 0, Reservation_fails = 0
	L1D_cache_core[2]: Access = 0, Miss = 0, Miss_rate = -nan, Pending_hits = 0, Reservation_fails = 0
	L1D_cache_core[3]: Access = 0, Miss = 0, Miss_rate = -nan, Pending_hits = 0, Reservation_fails = 0
	L1D_cache_core[4]: Access = 0, Miss = 0, Miss_rate = -nan, Pending_hits = 0, Reservation_fails = 0
	L1D_cache_core[5]: Access = 0, Miss = 0, Miss_rate = -nan, Pending_hits = 0, Reservation_fails = 0
	L1D_cache_core[6]: Access = 0, Miss = 0, Miss_rate = -nan, Pending_hits = 0, Reservation_fails = 0
	L1D_cache_core[7]: Access = 0, Miss = 0, Miss_rate = -nan, Pending_hits = 0, Reservation_fails = 0
	L1D_cache_core[8]: Access = 0, Miss = 0, Miss_rate = -nan, Pending_hits = 0, Reservation_fails = 0
	L1D_cache_core[9]: Access = 0, Miss = 0, Miss_rate = -nan, Pending_hits = 0, Reservation_fails = 0
	L1D_cache_core[10]: Access = 0, Miss = 0, Miss_rate = -nan, Pending_hits = 0, Reservation_fails = 0
	L1D_cache_core[11]: Access = 0, Miss = 0, Miss_rate = -nan, Pending_hits = 0, Reservation_fails = 0
	L1D_cache_core[12]: Access = 0, Miss = 0, Miss_rate = -nan, Pending_hits = 0, Reservation_fails = 0
	L1D_cache_core[13]: Access = 0, Miss = 0, Miss_rate = -nan, Pending_hits = 0, Reservation_fails = 0
	L1D_cache_core[14]: Access = 0, Miss = 0, Miss_rate = -nan, Pending_hits = 0, Reservation_fails = 0
	L1D_cache_core[15]: Access = 0, Miss = 0, Miss_rate = -nan, Pending_hits = 0, Reservation_fails = 0
	L1D_cache_core[16]: Access = 0, Miss = 0, Miss_rate = -nan, Pending_hits = 0, Reservation_fails = 0
	L1D_cache_core[17]: Access = 0, Miss = 0, Miss_rate = -nan, Pending_hits = 0, Reservation_fails = 0
	L1D_cache_core[18]: Access = 0, Miss = 0, Miss_rate = -nan, Pending_hits = 0, Reservation_fails = 0
	L1D_cache_core[19]: Access = 0, Miss = 0, Miss_rate = -nan, Pending_hits = 0, Reservation_fails = 0
	L1D_cache_core[20]: Access = 0, Miss = 0, Miss_rate = -nan, Pending_hits = 0, Reservation_fails = 0
	L1D_cache_core[21]: Access = 0, Miss = 0, Miss_rate = -nan, Pending_hits = 0, Reservation_fails = 0
	L1D_cache_core[22]: Access = 0, Miss = 0, Miss_rate = -nan, Pending_hits = 0, Reservation_fails = 0
	L1D_cache_core[23]: Access = 0, Miss = 0, Miss_rate = -nan, Pending_hits = 0, Reservation_fails = 0
	L1D_cache_core[24]: Access = 0, Miss = 0, Miss_rate = -nan, Pending_hits = 0, Reservation_fails = 0
	L1D_cache_core[25]: Access = 0, Miss = 0, Miss_rate = -nan, Pending_hits = 0, Reservation_fails = 0
	L1D_cache_core[26]: Access = 0, Miss = 0, Miss_rate = -nan, Pending_hits = 0, Reservation_fails = 0
	L1D_cache_core[27]: Access = 0, Miss = 0, Miss_rate = -nan, Pending_hits = 0, Reservation_fails = 0
	L1D_total_cache_accesses = 0
	L1D_total_cache_misses = 0
	L1D_total_cache_pending_hits = 0
	L1D_total_cache_reservation_fails = 0
	L1D_cache_data_port_util = 0.000
	L1D_cache_fill_port_util = 0.000
L1C_cache:
	L1C_total_cache_accesses = 14336
	L1C_total_cache_misses = 1792
	L1C_total_cache_miss_rate = 0.1250
	L1C_total_cache_pending_hits = 0
	L1C_total_cache_reservation_fails = 4886
L1T_cache:
	L1T_total_cache_accesses = 0
	L1T_total_cache_misses = 0
	L1T_total_cache_pending_hits = 0
	L1T_total_cache_reservation_fails = 0

Total_core_cache_stats:
	Total_core_cache_stats_breakdown[GLOBAL_ACC_R][HIT] = 0
	Total_core_cache_stats_breakdown[GLOBAL_ACC_R][HIT_RESERVED] = 0
	Total_core_cache_stats_breakdown[GLOBAL_ACC_R][MISS] = 0
	Total_core_cache_stats_breakdown[GLOBAL_ACC_R][RESERVATION_FAIL] = 0
	Total_core_cache_stats_breakdown[LOCAL_ACC_R][HIT] = 0
	Total_core_cache_stats_breakdown[LOCAL_ACC_R][HIT_RESERVED] = 0
	Total_core_cache_stats_breakdown[LOCAL_ACC_R][MISS] = 0
	Total_core_cache_stats_breakdown[LOCAL_ACC_R][RESERVATION_FAIL] = 0
	Total_core_cache_stats_breakdown[CONST_ACC_R][HIT] = 12544
	Total_core_cache_stats_breakdown[CONST_ACC_R][HIT_RESERVED] = 0
	Total_core_cache_stats_breakdown[CONST_ACC_R][MISS] = 1792
	Total_core_cache_stats_breakdown[CONST_ACC_R][RESERVATION_FAIL] = 4886
	Total_core_cache_stats_breakdown[TEXTURE_ACC_R][HIT] = 0
	Total_core_cache_stats_breakdown[TEXTURE_ACC_R][HIT_RESERVED] = 0
	Total_core_cache_stats_breakdown[TEXTURE_ACC_R][MISS] = 0
	Total_core_cache_stats_breakdown[TEXTURE_ACC_R][RESERVATION_FAIL] = 0
	Total_core_cache_stats_breakdown[GLOBAL_ACC_W][HIT] = 0
	Total_core_cache_stats_breakdown[GLOBAL_ACC_W][HIT_RESERVED] = 0
	Total_core_cache_stats_breakdown[GLOBAL_ACC_W][MISS] = 0
	Total_core_cache_stats_breakdown[GLOBAL_ACC_W][RESERVATION_FAIL] = 0
	Total_core_cache_stats_breakdown[LOCAL_ACC_W][HIT] = 0
	Total_core_cache_stats_breakdown[LOCAL_ACC_W][HIT_RESERVED] = 0
	Total_core_cache_stats_breakdown[LOCAL_ACC_W][MISS] = 0
	Total_core_cache_stats_breakdown[LOCAL_ACC_W][RESERVATION_FAIL] = 0
	Total_core_cache_stats_breakdown[L1_WRBK_ACC][HIT] = 0
	Total_core_cache_stats_breakdown[L1_WRBK_ACC][HIT_RESERVED] = 0
	Total_core_cache_stats_breakdown[L1_WRBK_ACC][MISS] = 0
	Total_core_cache_stats_breakdown[L1_WRBK_ACC][RESERVATION_FAIL] = 0
	Total_core_cache_stats_breakdown[L2_WRBK_ACC][HIT] = 0
	Total_core_cache_stats_breakdown[L2_WRBK_ACC][HIT_RESERVED] = 0
	Total_core_cache_stats_breakdown[L2_WRBK_ACC][MISS] = 0
	Total_core_cache_stats_breakdown[L2_WRBK_ACC][RESERVATION_FAIL] = 0
	Total_core_cache_stats_breakdown[INST_ACC_R][HIT] = 19854
	Total_core_cache_stats_breakdown[INST_ACC_R][HIT_RESERVED] = 0
	Total_core_cache_stats_breakdown[INST_ACC_R][MISS] = 2778
	Total_core_cache_stats_breakdown[INST_ACC_R][RESERVATION_FAIL] = 6846
	Total_core_cache_stats_breakdown[L1_WR_ALLOC_R][HIT] = 0
	Total_core_cache_stats_breakdown[L1_WR_ALLOC_R][HIT_RESERVED] = 0
	Total_core_cache_stats_breakdown[L1_WR_ALLOC_R][MISS] = 0
	Total_core_cache_stats_breakdown[L1_WR_ALLOC_R][RESERVATION_FAIL] = 0
	Total_core_cache_stats_breakdown[L2_WR_ALLOC_R][HIT] = 0
	Total_core_cache_stats_breakdown[L2_WR_ALLOC_R][HIT_RESERVED] = 0
	Total_core_cache_stats_breakdown[L2_WR_ALLOC_R][MISS] = 0
	Total_core_cache_stats_breakdown[L2_WR_ALLOC_R][RESERVATION_FAIL] = 0
	Total_core_cache_stats_breakdown[CONST_ACC_R][TOTAL_ACCESS] = 14336
	Total_core_cache_stats_breakdown[INST_ACC_R][TOTAL_ACCESS] = 22632
Shader 0 warp_id issue ditsribution:
warp_id:
0, 1, 2, 3, 4, 5, 6, 7, 8, 9, 10, 11, 12, 13, 14, 15, 16, 17, 18, 19, 20, 21, 22, 23, 24, 25, 26, 27, 28, 29, 30, 31, 32, 33, 34, 35, 36, 37, 38, 39, 40, 41, 42, 43, 44, 45, 46, 47, 48, 49, 50, 51, 52, 53, 54, 55, 56, 57, 58, 59, 60, 61, 62, 63, 
distro:
23, 23, 22, 23, 22, 23, 22, 23, 23, 23, 23, 23, 23, 23, 23, 23, 23, 23, 23, 23, 23, 23, 23, 23, 23, 23, 23, 23, 23, 23, 23, 23, 23, 23, 23, 23, 23, 23, 23, 23, 23, 23, 23, 23, 23, 23, 23, 23, 23, 23, 23, 23, 23, 23, 23, 23, 23, 23, 23, 23, 23, 23, 23, 23, 
gpgpu_n_tot_thrd_icount = 1317216
gpgpu_n_tot_w_icount = 41163
gpgpu_n_stall_shd_mem = 5197
gpgpu_n_mem_read_local = 0
gpgpu_n_mem_write_local = 0
gpgpu_n_mem_read_global = 2090
gpgpu_n_mem_write_global = 17
gpgpu_n_mem_texture = 0
gpgpu_n_mem_const = 28
gpgpu_n_load_insn  = 65578
gpgpu_n_store_insn = 17
gpgpu_n_shmem_insn = 0
gpgpu_n_tex_insn = 0
gpgpu_n_const_mem_insn = 0
gpgpu_n_param_mem_insn = 458752
gpgpu_n_shmem_bkconflict = 0
gpgpu_n_cache_bkconflict = 0
gpgpu_n_intrawarp_mshr_merge = 0
gpgpu_n_cmem_portconflict = 4886
gpgpu_stall_shd_mem[c_mem][bk_conf] = 4886
gpgpu_stall_shd_mem[c_mem][mshr_rc] = 0
gpgpu_stall_shd_mem[c_mem][icnt_rc] = 0
gpgpu_stall_shd_mem[c_mem][data_port_stall] = 0
gpgpu_stall_shd_mem[t_mem][mshr_rc] = 0
gpgpu_stall_shd_mem[t_mem][icnt_rc] = 0
gpgpu_stall_shd_mem[t_mem][data_port_stall] = 0
gpgpu_stall_shd_mem[s_mem][bk_conf] = 0
gpgpu_stall_shd_mem[gl_mem][bk_conf] = 0
gpgpu_stall_shd_mem[gl_mem][coal_stall] = 0
gpgpu_stall_shd_mem[gl_mem][data_port_stall] = 0
gpgpu_stall_shd_mem[g_mem_ld][mshr_rc] = 0
gpgpu_stall_shd_mem[g_mem_ld][icnt_rc] = 311
gpgpu_stall_shd_mem[g_mem_ld][wb_icnt_rc] = 0
gpgpu_stall_shd_mem[g_mem_ld][wb_rsrv_fail] = 0
gpgpu_stall_shd_mem[g_mem_st][mshr_rc] = 0
gpgpu_stall_shd_mem[g_mem_st][icnt_rc] = 0
gpgpu_stall_shd_mem[g_mem_st][wb_icnt_rc] = 0
gpgpu_stall_shd_mem[g_mem_st][wb_rsrv_fail] = 0
gpgpu_stall_shd_mem[l_mem_ld][mshr_rc] = 0
gpgpu_stall_shd_mem[l_mem_ld][icnt_rc] = 0
gpgpu_stall_shd_mem[l_mem_ld][wb_icnt_rc] = 0
gpgpu_stall_shd_mem[l_mem_ld][wb_rsrv_fail] = 0
gpgpu_stall_shd_mem[l_mem_st][mshr_rc] = 0
gpgpu_stall_shd_mem[l_mem_st][icnt_rc] = 0
gpgpu_stall_shd_mem[l_mem_ld][wb_icnt_rc] = 0
gpgpu_stall_shd_mem[l_mem_ld][wb_rsrv_fail] = 0
gpu_reg_bank_conflict_stalls = 0
Warp Occupancy Distribution:
Stall:16015	W0_Idle:4511145	W0_Scoreboard:638689	W1:203	W2:0	W3:0	W4:0	W5:0	W6:0	W7:0	W8:0	W9:0	W10:0	W11:0	W12:0	W13:0	W14:0	W15:0	W16:0	W17:0	W18:0	W19:0	W20:0	W21:0	W22:0	W23:0	W24:0	W25:0	W26:0	W27:0	W28:0	W29:0	W30:0	W31:0	W32:40960
traffic_breakdown_coretomem[CONST_ACC_R] = 224 {8:28,}
traffic_breakdown_coretomem[GLOBAL_ACC_R] = 16720 {8:2090,}
traffic_breakdown_coretomem[GLOBAL_ACC_W] = 680 {40:17,}
traffic_breakdown_coretomem[INST_ACC_R] = 680 {8:85,}
traffic_breakdown_memtocore[CONST_ACC_R] = 2016 {72:28,}
traffic_breakdown_memtocore[GLOBAL_ACC_R] = 83600 {40:2090,}
traffic_breakdown_memtocore[GLOBAL_ACC_W] = 136 {8:17,}
traffic_breakdown_memtocore[INST_ACC_R] = 11560 {136:85,}
maxmrqlatency = 78 
maxdqlatency = 0 
maxmflatency = 41714 
averagemflatency = 8431 
max_icnt2mem_latency = 41479 
max_icnt2sh_latency = 317517 
mrq_lat_table:181 	34 	39 	92 	45 	124 	45 	0 	0 	0 	0 	0 	0 	0 	0 	0 	0 	0 	0 	0 	0 	0 	0 	0 	0 	0 	0 	0 	0 	0 	0 	0 	
dq_lat_table:0 	0 	0 	0 	0 	0 	0 	0 	0 	0 	0 	0 	0 	0 	0 	0 	0 	0 	0 	0 	0 	0 	0 	0 	0 	0 	0 	0 	0 	0 	0 	0 	
mf_lat_table:0 	0 	0 	0 	0 	0 	0 	93 	230 	0 	0 	512 	1 	1292 	4 	3 	0 	0 	0 	0 	0 	0 	0 	0 	0 	0 	0 	0 	0 	0 	0 	0 	
icnt2mem_lat_table:0 	0 	132 	23 	23 	0 	230 	0 	0 	0 	0 	512 	2 	1291 	4 	3 	0 	0 	0 	0 	0 	0 	0 	0 	
icnt2sh_lat_table:0 	0 	562 	1103 	453 	0 	0 	0 	0 	0 	0 	0 	0 	0 	0 	0 	0 	1 	16 	0 	0 	0 	0 	0 	
mf_lat_pw_table:0 	0 	0 	0 	0 	0 	0 	13 	0 	0 	0 	2 	2 	6 	1 	2 	0 	0 	0 	0 	0 	0 	0 	0 	0 	0 	0 	0 	0 	0 	0 	0 	
maximum concurrent accesses to same row:
dram[0]:         0         0         0         0         0         0         0         0         0         0         0         0         0         0         1         0 
dram[1]:         0         0         0         0         0         0         0        15         0         0         0         0         0         0         0         0 
dram[2]:         0         0         0         0         0         0         0         0         0         0         0         0         0         0         0         0 
dram[3]:         0         0         0         0         0         0         0         0         0         0         0         0         0         0         0         0 
dram[4]:         0         0         0         0         0         0         0         0         0         0         0         0         0         0         1         0 
dram[5]:         0         0         0         0         0         0         0         0         0         0         0         0         0         0         0         0 
dram[6]:         0         0         0         0         0         0         0         0         0         0         0         0         0         0         0         0 
dram[7]:         0         0         0         0         6         0         0         0         0         0         0         0         0         0         0         0 
dram[8]:         0         0         0         0         0         0         0         0         0         0         0         0         0         0         0         0 
dram[9]:         0         0         0         0         0         0         0         0         0         0         0         0         0         0         0         0 
dram[10]:         0         0         0         0         0         0         0         0         0         0         0         0         0         0         0         0 
maximum service time to same row:
dram[0]:         0         0         0         0      4580      4584     11445     11447     93011     93016         0     64579         0     54277     14050         0 
dram[1]:         0         0         0         0      4580      4584     11445     61366     64570     93015         0         0     51680         0         0         0 
dram[2]:         0         0         0         0      4580      4584     11445     11448     93011     57705     64576         0         0         0     84579         0 
dram[3]:         0         0         0         0      4580      4582     11445     11448     57707     93015         0         0         0     46748         0         0 
dram[4]:         0         0         0         0      4580      4581     11445     11449     64573     93016         0         0     50172         0     84353       789 
dram[5]:         0     84582         0         0      4580      4581     11445     11448     93039     93015         0     47604     48460     50926     14313      4839 
dram[6]:         0         0         0         0      4580      4581     11445     11449     93011     93027     36565         0         0         0         0         0 
dram[7]:         0         0         0         0     68230      4584     11445     11448     93039     93015         0         0     49316         0         0         0 
dram[8]:         0         0         0         0      4580      4584     11445     11449     93012     93027     46035         0         0         0         0         0 
dram[9]:         0     92819         0         0      4580      4584     11445     11448     64572     93016         0         0     54275         0         0         0 
dram[10]:         0         0         0         0      4580      4584     11445     11449     93012     93027         0         0         0         0         0         0 
average row accesses per activate:
dram[0]:       inf      -nan      -nan      -nan  5.000000  5.000000 16.000000 16.000000  2.000000  2.000000      -nan  2.000000      -nan  2.000000  1.000000      -nan 
dram[1]:      -nan      -nan      -nan      -nan  5.000000  5.000000 16.000000  6.000000  4.000000  2.000000      -nan      -nan  1.000000      -nan      -nan      -nan 
dram[2]:      -nan      -nan      -nan      -nan  6.000000  6.000000 16.000000 16.000000  2.000000  6.000000  2.000000      -nan      -nan      -nan  2.000000      -nan 
dram[3]:      -nan      -nan      -nan      -nan  6.000000  6.000000 16.000000 16.000000  4.000000  2.000000      -nan      -nan      -nan  1.000000      -nan      -nan 
dram[4]:      -nan      -nan      -nan      -nan  6.000000  6.000000 16.000000 16.000000  4.000000  2.000000      -nan      -nan  1.000000      -nan  1.500000  1.000000 
dram[5]:      -nan  2.000000      -nan      -nan  6.000000  6.000000 16.000000 16.000000  1.000000  1.000000      -nan  1.000000  1.000000  1.000000  1.000000  1.000000 
dram[6]:      -nan      -nan      -nan      -nan  6.000000  6.000000 16.000000 16.000000  1.000000  1.000000  1.000000      -nan      -nan      -nan      -nan      -nan 
dram[7]:      -nan      -nan      -nan      -nan  4.000000  6.000000 16.000000 16.000000  1.000000  1.000000      -nan      -nan  1.000000      -nan      -nan      -nan 
dram[8]:      -nan      -nan      -nan      -nan  6.000000  6.000000 16.000000 16.000000  1.000000  1.000000  1.000000      -nan      -nan      -nan      -nan      -nan 
dram[9]:      -nan  2.000000      -nan      -nan  6.000000  6.000000 16.000000 16.000000  3.000000  1.000000      -nan      -nan  2.000000      -nan      -nan      -nan 
dram[10]:      -nan      -nan      -nan      -nan  6.000000  6.000000 16.000000 16.000000  1.000000  1.000000      -nan      -nan      -nan      -nan      -nan      -nan 
average row locality = 560/92 = 6.086957
number of total memory accesses made:
dram[0]:         0         0         0         0         0         0         0         0         0         0         0         0         0         0         0         0 
dram[1]:         0         0         0         0         0         0         0         0         0         0         0         0         0         0         0         0 
dram[2]:         0         0         0         0         0         0         0         0         0         0         0         0         0         0         0         0 
dram[3]:         0         0         0         0         0         0         0         0         0         0         0         0         0         0         0         0 
dram[4]:         0         0         0         0         0         0         0         0         0         0         0         0         0         0         0         0 
dram[5]:         0         0         0         0         0         0         0         0         0         0         0         0         0         0         0         0 
dram[6]:         0         0         0         0         0         0         0         0         0         0         0         0         0         0         0         0 
dram[7]:         0         0         0         0         0         0         0         0         0         0         0         0         0         0         0         0 
dram[8]:         0         0         0         0         0         0         0         0         0         0         0         0         0         0         0         0 
dram[9]:         0         0         0         0         0         0         0         0         0         0         0         0         0         0         0         0 
dram[10]:         0         0         0         0         0         0         0         0         0         0         0         0         0         0         0         0 
total accesses: 0
min_bank_accesses = 0!
min_chip_accesses = 0!
number of total read accesses:
dram[0]:         1         0         0         0         5         5        16        16         2         2         0         1         0         1         2         0 
dram[1]:         0         0         0         0         5         5        16        17         3         2         0         0         1         0         0         0 
dram[2]:         0         0         0         0         6         6        16        16         2         4         1         0         0         0         1         0 
dram[3]:         0         0         0         0         6         6        16        16         3         2         0         0         0         1         0         0 
dram[4]:         0         0         0         0         6         6        16        16         3         2         0         0         1         0         2         1 
dram[5]:         0         1         0         0         6         6        16        16         1         1         0         1         1         1         1         1 
dram[6]:         0         0         0         0         6         6        16        16         1         1         1         0         0         0         0         0 
dram[7]:         0         0         0         0         7         6        16        16         1         1         0         0         1         0         0         0 
dram[8]:         0         0         0         0         6         6        16        16         1         1         1         0         0         0         0         0 
dram[9]:         0         1         0         0         6         6        16        16         2         1         0         0         1         0         0         0 
dram[10]:         0         0         0         0         6         6        16        16         1         1         0         0         0         0         0         0 
total reads: 544
min_bank_accesses = 0!
chip skew: 53/46 = 1.15
number of total write accesses:
dram[0]:         0         0         0         0         0         0         0         0         0         0         0         1         0         1         0         0 
dram[1]:         0         0         0         0         0         0         0         1         1         0         0         0         0         0         0         0 
dram[2]:         0         0         0         0         0         0         0         0         0         2         1         0         0         0         1         0 
dram[3]:         0         0         0         0         0         0         0         0         1         0         0         0         0         0         0         0 
dram[4]:         0         0         0         0         0         0         0         0         1         0         0         0         0         0         1         0 
dram[5]:         0         1         0         0         0         0         0         0         0         0         0         0         0         0         0         0 
dram[6]:         0         0         0         0         0         0         0         0         0         0         0         0         0         0         0         0 
dram[7]:         0         0         0         0         1         0         0         0         0         0         0         0         0         0         0         0 
dram[8]:         0         0         0         0         0         0         0         0         0         0         0         0         0         0         0         0 
dram[9]:         0         1         0         0         0         0         0         0         1         0         0         0         1         0         0         0 
dram[10]:         0         0         0         0         0         0         0         0         0         0         0         0         0         0         0         0 
total reads: 16
min_bank_accesses = 0!
min_chip_accesses = 0!
average mf latency per bank:
dram[0]:       6678    none      none      none       14967     15049     39669     39897      1323      1212    none        8818    none        4103     11484    none  
dram[1]:     none      none      none      none       15035     15118     39664     36890      4205      1210    none      none         250    none      none      none  
dram[2]:     none      none      none      none       15070     15138     39694     39838      1329      4296      7961    none      none      none       16360    none  
dram[3]:     none      none      none      none       15023     15120     39708     39849      3556      1226    none      none      none         352    none      none  
dram[4]:     none      none      none      none       15019     15109     39710     39894      4417      1205    none      none         352    none       11412         0
dram[5]:     none       17543    none      none       15034     15141     39675     39845      1290      1098    none         352       352       250         0         0
dram[6]:     none      none      none      none       15020     15093     37089     37252      1353      1320     11647    none      none      none      none      none  
dram[7]:     none      none      none      none       14293     15104     37119     37215      1304      1109    none      none         352    none      none      none  
dram[8]:     none      none      none      none       15001     15085     37114     37201      1349      1324     10367    none      none      none      none      none  
dram[9]:     none       20857    none      none       15007     15104     37087     37189      4664      1113    none      none        3246    none      none      none  
dram[10]:     none      none      none      none       14988     15064     37099     37206      1349      1324    none      none      none      none      none      none  
maximum mf latency per bank:
dram[0]:        252         0         0         0      3777      3798     10637     10709       354       350         0     17637         0      8206     10421         0
dram[1]:          0         0         0         0      3784      3806     10652     25891     14205       350         0         0       250         0         0         0
dram[2]:          0         0         0         0      3798      3823     10672     10716       356     13452     15923         0         0         0     32720         0
dram[3]:          0         0         0         0      3801      3828     10670     10717     11622       358         0         0         0       352         0         0
dram[4]:          0         0         0         0      3797      3819     10675     10742     15064       348         0         0       352         0     34236         0
dram[5]:          0     35087         0         0      3801      3830     10642     10705       352       312         0       352       352       250         0         0
dram[6]:          0         0         0         0      3801      3813     10639     10692       354       352     11647         0         0         0         0         0
dram[7]:          0         0         0         0     24177      3821     10635     10690       356       316         0         0       352         0         0         0
dram[8]:          0         0         0         0      3788      3812     10650     10689       354       353      9457         0         0         0         0         0
dram[9]:          0     41714         0         0      3795      3818     10634     10681     12699       316         0         0      6492         0         0         0
dram[10]:          0         0         0         0      3789      3807     10638     10681       354       353         0         0         0         0         0         0
Memory Partition 0: 
Cache L2_bank_000:
MSHR contents

Cache L2_bank_001:
MSHR contents

In Dram Latency Queue (total = 0): 
DRAM[0]: 16 bks, busW=4 BL=8 CL=12, tRRD=2 tCCD=6, tRCD=12 tRAS=28 tRP=12 tRC=40
n_cmd=172851 n_nop=172633 n_act=11 n_pre=1 n_req=53 n_rd=204 n_write=2 bw_util=0.002384
n_activity=653 dram_eff=0.6309
bk0: 4a 172832i bk1: 0a 172851i bk2: 0a 172852i bk3: 0a 172852i bk4: 20a 172801i bk5: 20a 172767i bk6: 64a 172715i bk7: 64a 172596i bk8: 8a 172813i bk9: 8a 172822i bk10: 0a 172850i bk11: 4a 172825i bk12: 0a 172850i bk13: 4a 172824i bk14: 8a 172798i bk15: 0a 172848i 
dram_util_bins: 0 0 0 0 0 0 0 0 0 0
dram_eff_bins: 0 0 0 0 0 0 0 0 0 0
mrqq: max=14 avg=0.0125657
Memory Partition 1: 
Cache L2_bank_002:
MSHR contents

Cache L2_bank_003:
MSHR contents

In Dram Latency Queue (total = 0): 
DRAM[1]: 16 bks, busW=4 BL=8 CL=12, tRRD=2 tCCD=6, tRCD=12 tRAS=28 tRP=12 tRC=40
n_cmd=172851 n_nop=172642 n_act=9 n_pre=2 n_req=51 n_rd=196 n_write=2 bw_util=0.002291
n_activity=580 dram_eff=0.6828
bk0: 0a 172851i bk1: 0a 172852i bk2: 0a 172852i bk3: 0a 172852i bk4: 20a 172802i bk5: 20a 172771i bk6: 64a 172716i bk7: 68a 172533i bk8: 12a 172795i bk9: 8a 172821i bk10: 0a 172847i bk11: 0a 172848i bk12: 4a 172830i bk13: 0a 172848i bk14: 0a 172849i bk15: 0a 172851i 
dram_util_bins: 0 0 0 0 0 0 0 0 0 0
dram_eff_bins: 0 0 0 0 0 0 0 0 0 0
mrqq: max=14 avg=0.0121029
Memory Partition 2: 
Cache L2_bank_004:
MSHR contents

Cache L2_bank_005:
MSHR contents

In Dram Latency Queue (total = 0): 
DRAM[2]: 16 bks, busW=4 BL=8 CL=12, tRRD=2 tCCD=6, tRCD=12 tRAS=28 tRP=12 tRC=40
n_cmd=172851 n_nop=172631 n_act=8 n_pre=0 n_req=56 n_rd=208 n_write=4 bw_util=0.002453
n_activity=582 dram_eff=0.7285
bk0: 0a 172850i bk1: 0a 172854i bk2: 0a 172854i bk3: 0a 172854i bk4: 24a 172794i bk5: 24a 172753i bk6: 64a 172712i bk7: 64a 172599i bk8: 8a 172812i bk9: 16a 172771i bk10: 4a 172815i bk11: 0a 172847i bk12: 0a 172847i bk13: 0a 172849i bk14: 4a 172824i bk15: 0a 172849i 
dram_util_bins: 0 0 0 0 0 0 0 0 0 0
dram_eff_bins: 0 0 0 0 0 0 0 0 0 0
mrqq: max=11 avg=0.0112525
Memory Partition 3: 
Cache L2_bank_006:
MSHR contents

Cache L2_bank_007:
MSHR contents

In Dram Latency Queue (total = 0): 
DRAM[3]: 16 bks, busW=4 BL=8 CL=12, tRRD=2 tCCD=6, tRCD=12 tRAS=28 tRP=12 tRC=40
n_cmd=172851 n_nop=172643 n_act=7 n_pre=0 n_req=51 n_rd=200 n_write=1 bw_util=0.002326
n_activity=529 dram_eff=0.7599
bk0: 0a 172850i bk1: 0a 172852i bk2: 0a 172852i bk3: 0a 172853i bk4: 24a 172794i bk5: 24a 172749i bk6: 64a 172713i bk7: 64a 172601i bk8: 12a 172805i bk9: 8a 172815i bk10: 0a 172849i bk11: 0a 172849i bk12: 0a 172849i bk13: 4a 172831i bk14: 0a 172849i bk15: 0a 172850i 
dram_util_bins: 0 0 0 0 0 0 0 0 0 0
dram_eff_bins: 0 0 0 0 0 0 0 0 0 0
mrqq: max=12 avg=0.0116806
Memory Partition 4: 
Cache L2_bank_008:
MSHR contents

Cache L2_bank_009:
MSHR contents

In Dram Latency Queue (total = 0): 
DRAM[4]: 16 bks, busW=4 BL=8 CL=12, tRRD=2 tCCD=6, tRCD=12 tRAS=28 tRP=12 tRC=40
n_cmd=172851 n_nop=172626 n_act=10 n_pre=1 n_req=55 n_rd=212 n_write=2 bw_util=0.002476
n_activity=669 dram_eff=0.6398
bk0: 0a 172847i bk1: 0a 172851i bk2: 0a 172851i bk3: 0a 172853i bk4: 24a 172794i bk5: 24a 172749i bk6: 64a 172716i bk7: 64a 172601i bk8: 12a 172804i bk9: 8a 172822i bk10: 0a 172849i bk11: 0a 172850i bk12: 4a 172830i bk13: 0a 172850i bk14: 8a 172793i bk15: 4a 172828i 
dram_util_bins: 0 0 0 0 0 0 0 0 0 0
dram_eff_bins: 0 0 0 0 0 0 0 0 0 0
mrqq: max=15 avg=0.0130864
Memory Partition 5: 
Cache L2_bank_010:
MSHR contents

Cache L2_bank_011:
MSHR contents

In Dram Latency Queue (total = 0): 
DRAM[5]: 16 bks, busW=4 BL=8 CL=12, tRRD=2 tCCD=6, tRCD=12 tRAS=28 tRP=12 tRC=40
n_cmd=172851 n_nop=172630 n_act=12 n_pre=0 n_req=53 n_rd=208 n_write=1 bw_util=0.002418
n_activity=708 dram_eff=0.5904
bk0: 0a 172850i bk1: 4a 172827i bk2: 0a 172851i bk3: 0a 172851i bk4: 24a 172791i bk5: 24a 172747i bk6: 64a 172709i bk7: 64a 172599i bk8: 4a 172832i bk9: 4a 172832i bk10: 0a 172850i bk11: 4a 172830i bk12: 4a 172830i bk13: 4a 172831i bk14: 4a 172830i bk15: 4a 172831i 
dram_util_bins: 0 0 0 0 0 0 0 0 0 0
dram_eff_bins: 0 0 0 0 0 0 0 0 0 0
mrqq: max=12 avg=0.0121955
Memory Partition 6: 
Cache L2_bank_012:
MSHR contents

Cache L2_bank_013:
MSHR contents

In Dram Latency Queue (total = 0): 
DRAM[6]: 16 bks, busW=4 BL=8 CL=12, tRRD=2 tCCD=6, tRCD=12 tRAS=28 tRP=12 tRC=40
n_cmd=172851 n_nop=172656 n_act=7 n_pre=0 n_req=47 n_rd=188 n_write=0 bw_util=0.002175
n_activity=476 dram_eff=0.7899
bk0: 0a 172850i bk1: 0a 172852i bk2: 0a 172852i bk3: 0a 172854i bk4: 24a 172795i bk5: 24a 172747i bk6: 64a 172716i bk7: 64a 172609i bk8: 4a 172828i bk9: 4a 172830i bk10: 4a 172829i bk11: 0a 172847i bk12: 0a 172848i bk13: 0a 172850i bk14: 0a 172850i bk15: 0a 172850i 
dram_util_bins: 0 0 0 0 0 0 0 0 0 0
dram_eff_bins: 0 0 0 0 0 0 0 0 0 0
mrqq: max=11 avg=0.0112351
Memory Partition 7: 
Cache L2_bank_014:
MSHR contents

Cache L2_bank_015:
MSHR contents

In Dram Latency Queue (total = 0): 
DRAM[7]: 16 bks, busW=4 BL=8 CL=12, tRRD=2 tCCD=6, tRCD=12 tRAS=28 tRP=12 tRC=40
n_cmd=172851 n_nop=172649 n_act=8 n_pre=1 n_req=49 n_rd=192 n_write=1 bw_util=0.002233
n_activity=548 dram_eff=0.7044
bk0: 0a 172851i bk1: 0a 172853i bk2: 0a 172853i bk3: 0a 172854i bk4: 28a 172757i bk5: 24a 172750i bk6: 64a 172708i bk7: 64a 172606i bk8: 4a 172830i bk9: 4a 172830i bk10: 0a 172848i bk11: 0a 172848i bk12: 4a 172830i bk13: 0a 172849i bk14: 0a 172851i bk15: 0a 172851i 
dram_util_bins: 0 0 0 0 0 0 0 0 0 0
dram_eff_bins: 0 0 0 0 0 0 0 0 0 0
mrqq: max=12 avg=0.0104425
Memory Partition 8: 
Cache L2_bank_016:
MSHR contents

Cache L2_bank_017:
MSHR contents

In Dram Latency Queue (total = 0): 
DRAM[8]: 16 bks, busW=4 BL=8 CL=12, tRRD=2 tCCD=6, tRCD=12 tRAS=28 tRP=12 tRC=40
n_cmd=172851 n_nop=172656 n_act=7 n_pre=0 n_req=47 n_rd=188 n_write=0 bw_util=0.002175
n_activity=474 dram_eff=0.7932
bk0: 0a 172850i bk1: 0a 172852i bk2: 0a 172852i bk3: 0a 172854i bk4: 24a 172795i bk5: 24a 172753i bk6: 64a 172708i bk7: 64a 172611i bk8: 4a 172829i bk9: 4a 172831i bk10: 4a 172829i bk11: 0a 172848i bk12: 0a 172848i bk13: 0a 172850i bk14: 0a 172850i bk15: 0a 172850i 
dram_util_bins: 0 0 0 0 0 0 0 0 0 0
dram_eff_bins: 0 0 0 0 0 0 0 0 0 0
mrqq: max=11 avg=0.0103731
Memory Partition 9: 
Cache L2_bank_018:
MSHR contents

Cache L2_bank_019:
MSHR contents

In Dram Latency Queue (total = 0): 
DRAM[9]: 16 bks, busW=4 BL=8 CL=12, tRRD=2 tCCD=6, tRCD=12 tRAS=28 tRP=12 tRC=40
n_cmd=172851 n_nop=172644 n_act=8 n_pre=0 n_req=52 n_rd=196 n_write=3 bw_util=0.002303
n_activity=561 dram_eff=0.7094
bk0: 0a 172851i bk1: 4a 172827i bk2: 0a 172851i bk3: 0a 172853i bk4: 24a 172793i bk5: 24a 172750i bk6: 64a 172712i bk7: 64a 172606i bk8: 8a 172810i bk9: 4a 172830i bk10: 0a 172849i bk11: 0a 172850i bk12: 4a 172824i bk13: 0a 172849i bk14: 0a 172850i bk15: 0a 172851i 
dram_util_bins: 0 0 0 0 0 0 0 0 0 0
dram_eff_bins: 0 0 0 0 0 0 0 0 0 0
mrqq: max=10 avg=0.00997969
Memory Partition 10: 
Cache L2_bank_020:
MSHR contents

Cache L2_bank_021:
MSHR contents

In Dram Latency Queue (total = 0): 
DRAM[10]: 16 bks, busW=4 BL=8 CL=12, tRRD=2 tCCD=6, tRCD=12 tRAS=28 tRP=12 tRC=40
n_cmd=172851 n_nop=172661 n_act=6 n_pre=0 n_req=46 n_rd=184 n_write=0 bw_util=0.002129
n_activity=434 dram_eff=0.8479
bk0: 0a 172851i bk1: 0a 172853i bk2: 0a 172853i bk3: 0a 172853i bk4: 24a 172795i bk5: 24a 172752i bk6: 64a 172707i bk7: 64a 172609i bk8: 4a 172828i bk9: 4a 172830i bk10: 0a 172848i bk11: 0a 172849i bk12: 0a 172849i bk13: 0a 172850i bk14: 0a 172851i bk15: 0a 172851i 
dram_util_bins: 0 0 0 0 0 0 0 0 0 0
dram_eff_bins: 0 0 0 0 0 0 0 0 0 0
mrqq: max=12 avg=0.010726

========= L2 cache stats =========
L2_cache_bank[0]: Access = 146, Miss = 26, Miss_rate = 0.178, Pending_hits = 96, Reservation_fails = 0
L2_cache_bank[1]: Access = 94, Miss = 25, Miss_rate = 0.266, Pending_hits = 69, Reservation_fails = 0
L2_cache_bank[2]: Access = 94, Miss = 25, Miss_rate = 0.266, Pending_hits = 69, Reservation_fails = 0
L2_cache_bank[3]: Access = 93, Miss = 24, Miss_rate = 0.258, Pending_hits = 69, Reservation_fails = 0
L2_cache_bank[4]: Access = 99, Miss = 26, Miss_rate = 0.263, Pending_hits = 72, Reservation_fails = 0
L2_cache_bank[5]: Access = 98, Miss = 26, Miss_rate = 0.265, Pending_hits = 72, Reservation_fails = 0
L2_cache_bank[6]: Access = 97, Miss = 25, Miss_rate = 0.258, Pending_hits = 72, Reservation_fails = 0
L2_cache_bank[7]: Access = 97, Miss = 25, Miss_rate = 0.258, Pending_hits = 72, Reservation_fails = 0
L2_cache_bank[8]: Access = 127, Miss = 28, Miss_rate = 0.220, Pending_hits = 99, Reservation_fails = 0
L2_cache_bank[9]: Access = 124, Miss = 25, Miss_rate = 0.202, Pending_hits = 99, Reservation_fails = 0
L2_cache_bank[10]: Access = 94, Miss = 25, Miss_rate = 0.266, Pending_hits = 69, Reservation_fails = 0
L2_cache_bank[11]: Access = 123, Miss = 27, Miss_rate = 0.220, Pending_hits = 96, Reservation_fails = 0
L2_cache_bank[12]: Access = 93, Miss = 24, Miss_rate = 0.258, Pending_hits = 69, Reservation_fails = 0
L2_cache_bank[13]: Access = 92, Miss = 23, Miss_rate = 0.250, Pending_hits = 69, Reservation_fails = 0
L2_cache_bank[14]: Access = 94, Miss = 25, Miss_rate = 0.266, Pending_hits = 69, Reservation_fails = 0
L2_cache_bank[15]: Access = 92, Miss = 23, Miss_rate = 0.250, Pending_hits = 69, Reservation_fails = 0
L2_cache_bank[16]: Access = 100, Miss = 24, Miss_rate = 0.240, Pending_hits = 69, Reservation_fails = 0
L2_cache_bank[17]: Access = 92, Miss = 23, Miss_rate = 0.250, Pending_hits = 69, Reservation_fails = 0
L2_cache_bank[18]: Access = 94, Miss = 25, Miss_rate = 0.266, Pending_hits = 69, Reservation_fails = 0
L2_cache_bank[19]: Access = 93, Miss = 24, Miss_rate = 0.258, Pending_hits = 69, Reservation_fails = 0
L2_cache_bank[20]: Access = 92, Miss = 23, Miss_rate = 0.250, Pending_hits = 69, Reservation_fails = 0
L2_cache_bank[21]: Access = 92, Miss = 23, Miss_rate = 0.250, Pending_hits = 69, Reservation_fails = 0
L2_total_cache_accesses = 2220
L2_total_cache_misses = 544
L2_total_cache_miss_rate = 0.2450
L2_total_cache_pending_hits = 1644
L2_total_cache_reservation_fails = 0
L2_total_cache_breakdown:
	L2_cache_stats_breakdown[GLOBAL_ACC_R][HIT] = 31
	L2_cache_stats_breakdown[GLOBAL_ACC_R][HIT_RESERVED] = 1536
	L2_cache_stats_breakdown[GLOBAL_ACC_R][MISS] = 523
	L2_cache_stats_breakdown[GLOBAL_ACC_R][RESERVATION_FAIL] = 0
	L2_cache_stats_breakdown[LOCAL_ACC_R][HIT] = 0
	L2_cache_stats_breakdown[LOCAL_ACC_R][HIT_RESERVED] = 0
	L2_cache_stats_breakdown[LOCAL_ACC_R][MISS] = 0
	L2_cache_stats_breakdown[LOCAL_ACC_R][RESERVATION_FAIL] = 0
	L2_cache_stats_breakdown[CONST_ACC_R][HIT] = 0
	L2_cache_stats_breakdown[CONST_ACC_R][HIT_RESERVED] = 27
	L2_cache_stats_breakdown[CONST_ACC_R][MISS] = 1
	L2_cache_stats_breakdown[CONST_ACC_R][RESERVATION_FAIL] = 0
	L2_cache_stats_breakdown[TEXTURE_ACC_R][HIT] = 0
	L2_cache_stats_breakdown[TEXTURE_ACC_R][HIT_RESERVED] = 0
	L2_cache_stats_breakdown[TEXTURE_ACC_R][MISS] = 0
	L2_cache_stats_breakdown[TEXTURE_ACC_R][RESERVATION_FAIL] = 0
	L2_cache_stats_breakdown[GLOBAL_ACC_W][HIT] = 1
	L2_cache_stats_breakdown[GLOBAL_ACC_W][HIT_RESERVED] = 0
	L2_cache_stats_breakdown[GLOBAL_ACC_W][MISS] = 16
	L2_cache_stats_breakdown[GLOBAL_ACC_W][RESERVATION_FAIL] = 0
	L2_cache_stats_breakdown[LOCAL_ACC_W][HIT] = 0
	L2_cache_stats_breakdown[LOCAL_ACC_W][HIT_RESERVED] = 0
	L2_cache_stats_breakdown[LOCAL_ACC_W][MISS] = 0
	L2_cache_stats_breakdown[LOCAL_ACC_W][RESERVATION_FAIL] = 0
	L2_cache_stats_breakdown[L1_WRBK_ACC][HIT] = 0
	L2_cache_stats_breakdown[L1_WRBK_ACC][HIT_RESERVED] = 0
	L2_cache_stats_breakdown[L1_WRBK_ACC][MISS] = 0
	L2_cache_stats_breakdown[L1_WRBK_ACC][RESERVATION_FAIL] = 0
	L2_cache_stats_breakdown[L2_WRBK_ACC][HIT] = 0
	L2_cache_stats_breakdown[L2_WRBK_ACC][HIT_RESERVED] = 0
	L2_cache_stats_breakdown[L2_WRBK_ACC][MISS] = 0
	L2_cache_stats_breakdown[L2_WRBK_ACC][RESERVATION_FAIL] = 0
	L2_cache_stats_breakdown[INST_ACC_R][HIT] = 0
	L2_cache_stats_breakdown[INST_ACC_R][HIT_RESERVED] = 81
	L2_cache_stats_breakdown[INST_ACC_R][MISS] = 4
	L2_cache_stats_breakdown[INST_ACC_R][RESERVATION_FAIL] = 0
	L2_cache_stats_breakdown[L1_WR_ALLOC_R][HIT] = 0
	L2_cache_stats_breakdown[L1_WR_ALLOC_R][HIT_RESERVED] = 0
	L2_cache_stats_breakdown[L1_WR_ALLOC_R][MISS] = 0
	L2_cache_stats_breakdown[L1_WR_ALLOC_R][RESERVATION_FAIL] = 0
	L2_cache_stats_breakdown[L2_WR_ALLOC_R][HIT] = 0
	L2_cache_stats_breakdown[L2_WR_ALLOC_R][HIT_RESERVED] = 0
	L2_cache_stats_breakdown[L2_WR_ALLOC_R][MISS] = 0
	L2_cache_stats_breakdown[L2_WR_ALLOC_R][RESERVATION_FAIL] = 0
	L2_cache_stats_breakdown[GLOBAL_ACC_R][TOTAL_ACCESS] = 2090
	L2_cache_stats_breakdown[CONST_ACC_R][TOTAL_ACCESS] = 28
	L2_cache_stats_breakdown[GLOBAL_ACC_W][TOTAL_ACCESS] = 17
	L2_cache_stats_breakdown[INST_ACC_R][TOTAL_ACCESS] = 85
L2_cache_data_port_util = 0.000
L2_cache_fill_port_util = 0.001

icnt_total_pkts_mem_to_simt=4706
icnt_total_pkts_simt_to_mem=2237
LD_mem_lat_dist  0 0 0 0 0 0 0 0 0 0 0 0 0 0 0 0 0 0 0 0 0 0 0 0 0 0 0
ST_mem_lat_dist  0 0 0 0 0 0 0 0 0 0 0 0 0 0 0 0 0 0 0 0 0 0 0 0 0 0 0
----------------------------Interconnect-DETAILS--------------------------------
Class 0:
Packet latency average = 26.4482
	minimum = 6
	maximum = 96
Network latency average = 18.1685
	minimum = 6
	maximum = 60
Slowest packet = 27
Flit latency average = 15.9433
	minimum = 6
	maximum = 60
Slowest flit = 27
Fragmentation average = 0
	minimum = 0
	maximum = 0
Injected packet rate average = 0.000476965
	minimum = 0.000365244 (at node 0)
	maximum = 0.0007842 (at node 28)
Accepted packet rate average = 0.000476965
	minimum = 0.000365244 (at node 0)
	maximum = 0.0007842 (at node 28)
Injected flit rate average = 0.000745849
	minimum = 0.000365244 (at node 0)
	maximum = 0.00180473 (at node 36)
Accepted flit rate average= 0.000745849
	minimum = 0.000494153 (at node 41)
	maximum = 0.00152543 (at node 1)
Injected packet length average = 1.56374
Accepted packet length average = 1.56374
Total in-flight flits = 0 (0 measured)
====== Overall Traffic Statistics ======
====== Traffic class 0 ======
Packet latency average = 26.4482 (1 samples)
	minimum = 6 (1 samples)
	maximum = 96 (1 samples)
Network latency average = 18.1685 (1 samples)
	minimum = 6 (1 samples)
	maximum = 60 (1 samples)
Flit latency average = 15.9433 (1 samples)
	minimum = 6 (1 samples)
	maximum = 60 (1 samples)
Fragmentation average = 0 (1 samples)
	minimum = 0 (1 samples)
	maximum = 0 (1 samples)
Injected packet rate average = 0.000476965 (1 samples)
	minimum = 0.000365244 (1 samples)
	maximum = 0.0007842 (1 samples)
Accepted packet rate average = 0.000476965 (1 samples)
	minimum = 0.000365244 (1 samples)
	maximum = 0.0007842 (1 samples)
Injected flit rate average = 0.000745849 (1 samples)
	minimum = 0.000365244 (1 samples)
	maximum = 0.00180473 (1 samples)
Accepted flit rate average = 0.000745849 (1 samples)
	minimum = 0.000494153 (1 samples)
	maximum = 0.00152543 (1 samples)
Injected packet size average = 1.56374 (1 samples)
Accepted packet size average = 1.56374 (1 samples)
Hops average = 1 (1 samples)
----------------------------END-of-Interconnect-DETAILS-------------------------


gpgpu_simulation_time = 0 days, 0 hrs, 2 min, 14 sec (134 sec)
gpgpu_simulation_rate = 9293 (inst/sec)
gpgpu_simulation_rate = 2371 (cycle/sec)

GPGPU-Sim PTX: cudaLaunch for 0x0x401649 (mode=performance simulation) on stream 0
GPGPU-Sim PTX: pushing kernel '_Z7Kernel2PbS_S_S_i' to stream 0, gridDim= (128,1,1) blockDim = (512,1,1) 
GPGPU-Sim uArch: Shader 17 bind to kernel 2 '_Z7Kernel2PbS_S_S_i'
GPGPU-Sim uArch: CTA/core = 4, limited by: threads
GPGPU-Sim uArch: Shader 18 bind to kernel 2 '_Z7Kernel2PbS_S_S_i'
GPGPU-Sim uArch: Shader 19 bind to kernel 2 '_Z7Kernel2PbS_S_S_i'
GPGPU-Sim uArch: Shader 20 bind to kernel 2 '_Z7Kernel2PbS_S_S_i'
GPGPU-Sim uArch: Shader 21 bind to kernel 2 '_Z7Kernel2PbS_S_S_i'
GPGPU-Sim uArch: Shader 22 bind to kernel 2 '_Z7Kernel2PbS_S_S_i'
GPGPU-Sim uArch: Shader 23 bind to kernel 2 '_Z7Kernel2PbS_S_S_i'
GPGPU-Sim uArch: Shader 24 bind to kernel 2 '_Z7Kernel2PbS_S_S_i'
GPGPU-Sim uArch: Shader 25 bind to kernel 2 '_Z7Kernel2PbS_S_S_i'
GPGPU-Sim uArch: Shader 26 bind to kernel 2 '_Z7Kernel2PbS_S_S_i'
GPGPU-Sim uArch: Shader 27 bind to kernel 2 '_Z7Kernel2PbS_S_S_i'
GPGPU-Sim uArch: Shader 0 bind to kernel 2 '_Z7Kernel2PbS_S_S_i'
GPGPU-Sim uArch: Shader 1 bind to kernel 2 '_Z7Kernel2PbS_S_S_i'
GPGPU-Sim uArch: Shader 2 bind to kernel 2 '_Z7Kernel2PbS_S_S_i'
GPGPU-Sim uArch: Shader 3 bind to kernel 2 '_Z7Kernel2PbS_S_S_i'
GPGPU-Sim uArch: Shader 4 bind to kernel 2 '_Z7Kernel2PbS_S_S_i'
GPGPU-Sim uArch: Shader 5 bind to kernel 2 '_Z7Kernel2PbS_S_S_i'
GPGPU-Sim uArch: Shader 6 bind to kernel 2 '_Z7Kernel2PbS_S_S_i'
GPGPU-Sim uArch: Shader 7 bind to kernel 2 '_Z7Kernel2PbS_S_S_i'
GPGPU-Sim uArch: Shader 8 bind to kernel 2 '_Z7Kernel2PbS_S_S_i'
GPGPU-Sim uArch: Shader 9 bind to kernel 2 '_Z7Kernel2PbS_S_S_i'
GPGPU-Sim uArch: Shader 10 bind to kernel 2 '_Z7Kernel2PbS_S_S_i'
GPGPU-Sim uArch: Shader 11 bind to kernel 2 '_Z7Kernel2PbS_S_S_i'
GPGPU-Sim uArch: Shader 12 bind to kernel 2 '_Z7Kernel2PbS_S_S_i'
GPGPU-Sim uArch: Shader 13 bind to kernel 2 '_Z7Kernel2PbS_S_S_i'
GPGPU-Sim uArch: Shader 14 bind to kernel 2 '_Z7Kernel2PbS_S_S_i'
GPGPU-Sim uArch: Shader 15 bind to kernel 2 '_Z7Kernel2PbS_S_S_i'
GPGPU-Sim uArch: Shader 16 bind to kernel 2 '_Z7Kernel2PbS_S_S_i'
Destroy streams for kernel 2: size 0
kernel_name = _Z7Kernel2PbS_S_S_i 
kernel_launch_uid = 2 
gpu_sim_cycle = 2060
gpu_sim_insn = 1114192
gpu_ipc =     540.8699
gpu_tot_sim_cycle = 541985
gpu_tot_sim_insn = 2359568
gpu_tot_ipc =       4.3536
gpu_tot_issued_cta = 256
max_total_param_size = 0
gpu_stall_dramfull = 423
gpu_stall_icnt2sh    = 8023
partiton_reqs_in_parallel = 44897
partiton_reqs_in_parallel_total    = 2047958
partiton_level_parallism =      21.7947
partiton_level_parallism_total  =       3.8615
partiton_reqs_in_parallel_util = 44897
partiton_reqs_in_parallel_util_total    = 2047958
gpu_sim_cycle_parition_util = 2060
gpu_tot_sim_cycle_parition_util    = 93089
partiton_level_parallism_util =      21.7947
partiton_level_parallism_util_total  =      21.9956
partiton_replys_in_parallel = 2136
partiton_replys_in_parallel_total    = 2220
L2_BW  =      98.2809 GB/Sec
L2_BW_total  =       0.7618 GB/Sec
gpu_total_sim_rate=16734

========= Core cache stats =========
L1I_cache:
	L1I_total_cache_accesses = 43152
	L1I_total_cache_misses = 5466
	L1I_total_cache_miss_rate = 0.1267
	L1I_total_cache_pending_hits = 0
	L1I_total_cache_reservation_fails = 16484
L1D_cache:
	L1D_cache_core[0]: Access = 0, Miss = 0, Miss_rate = -nan, Pending_hits = 0, Reservation_fails = 0
	L1D_cache_core[1]: Access = 0, Miss = 0, Miss_rate = -nan, Pending_hits = 0, Reservation_fails = 0
	L1D_cache_core[2]: Access = 0, Miss = 0, Miss_rate = -nan, Pending_hits = 0, Reservation_fails = 0
	L1D_cache_core[3]: Access = 0, Miss = 0, Miss_rate = -nan, Pending_hits = 0, Reservation_fails = 0
	L1D_cache_core[4]: Access = 0, Miss = 0, Miss_rate = -nan, Pending_hits = 0, Reservation_fails = 0
	L1D_cache_core[5]: Access = 0, Miss = 0, Miss_rate = -nan, Pending_hits = 0, Reservation_fails = 0
	L1D_cache_core[6]: Access = 0, Miss = 0, Miss_rate = -nan, Pending_hits = 0, Reservation_fails = 0
	L1D_cache_core[7]: Access = 0, Miss = 0, Miss_rate = -nan, Pending_hits = 0, Reservation_fails = 0
	L1D_cache_core[8]: Access = 0, Miss = 0, Miss_rate = -nan, Pending_hits = 0, Reservation_fails = 0
	L1D_cache_core[9]: Access = 0, Miss = 0, Miss_rate = -nan, Pending_hits = 0, Reservation_fails = 0
	L1D_cache_core[10]: Access = 0, Miss = 0, Miss_rate = -nan, Pending_hits = 0, Reservation_fails = 0
	L1D_cache_core[11]: Access = 0, Miss = 0, Miss_rate = -nan, Pending_hits = 0, Reservation_fails = 0
	L1D_cache_core[12]: Access = 0, Miss = 0, Miss_rate = -nan, Pending_hits = 0, Reservation_fails = 0
	L1D_cache_core[13]: Access = 0, Miss = 0, Miss_rate = -nan, Pending_hits = 0, Reservation_fails = 0
	L1D_cache_core[14]: Access = 0, Miss = 0, Miss_rate = -nan, Pending_hits = 0, Reservation_fails = 0
	L1D_cache_core[15]: Access = 0, Miss = 0, Miss_rate = -nan, Pending_hits = 0, Reservation_fails = 0
	L1D_cache_core[16]: Access = 0, Miss = 0, Miss_rate = -nan, Pending_hits = 0, Reservation_fails = 0
	L1D_cache_core[17]: Access = 0, Miss = 0, Miss_rate = -nan, Pending_hits = 0, Reservation_fails = 0
	L1D_cache_core[18]: Access = 0, Miss = 0, Miss_rate = -nan, Pending_hits = 0, Reservation_fails = 0
	L1D_cache_core[19]: Access = 0, Miss = 0, Miss_rate = -nan, Pending_hits = 0, Reservation_fails = 0
	L1D_cache_core[20]: Access = 0, Miss = 0, Miss_rate = -nan, Pending_hits = 0, Reservation_fails = 0
	L1D_cache_core[21]: Access = 0, Miss = 0, Miss_rate = -nan, Pending_hits = 0, Reservation_fails = 0
	L1D_cache_core[22]: Access = 0, Miss = 0, Miss_rate = -nan, Pending_hits = 0, Reservation_fails = 0
	L1D_cache_core[23]: Access = 0, Miss = 0, Miss_rate = -nan, Pending_hits = 0, Reservation_fails = 0
	L1D_cache_core[24]: Access = 0, Miss = 0, Miss_rate = -nan, Pending_hits = 0, Reservation_fails = 0
	L1D_cache_core[25]: Access = 0, Miss = 0, Miss_rate = -nan, Pending_hits = 0, Reservation_fails = 0
	L1D_cache_core[26]: Access = 0, Miss = 0, Miss_rate = -nan, Pending_hits = 0, Reservation_fails = 0
	L1D_cache_core[27]: Access = 0, Miss = 0, Miss_rate = -nan, Pending_hits = 0, Reservation_fails = 0
	L1D_total_cache_accesses = 0
	L1D_total_cache_misses = 0
	L1D_total_cache_pending_hits = 0
	L1D_total_cache_reservation_fails = 0
	L1D_cache_data_port_util = 0.000
	L1D_cache_fill_port_util = 0.000
L1C_cache:
	L1C_total_cache_accesses = 24576
	L1C_total_cache_misses = 1792
	L1C_total_cache_miss_rate = 0.0729
	L1C_total_cache_pending_hits = 0
	L1C_total_cache_reservation_fails = 4886
L1T_cache:
	L1T_total_cache_accesses = 0
	L1T_total_cache_misses = 0
	L1T_total_cache_pending_hits = 0
	L1T_total_cache_reservation_fails = 0

Total_core_cache_stats:
	Total_core_cache_stats_breakdown[GLOBAL_ACC_R][HIT] = 0
	Total_core_cache_stats_breakdown[GLOBAL_ACC_R][HIT_RESERVED] = 0
	Total_core_cache_stats_breakdown[GLOBAL_ACC_R][MISS] = 0
	Total_core_cache_stats_breakdown[GLOBAL_ACC_R][RESERVATION_FAIL] = 0
	Total_core_cache_stats_breakdown[LOCAL_ACC_R][HIT] = 0
	Total_core_cache_stats_breakdown[LOCAL_ACC_R][HIT_RESERVED] = 0
	Total_core_cache_stats_breakdown[LOCAL_ACC_R][MISS] = 0
	Total_core_cache_stats_breakdown[LOCAL_ACC_R][RESERVATION_FAIL] = 0
	Total_core_cache_stats_breakdown[CONST_ACC_R][HIT] = 22784
	Total_core_cache_stats_breakdown[CONST_ACC_R][HIT_RESERVED] = 0
	Total_core_cache_stats_breakdown[CONST_ACC_R][MISS] = 1792
	Total_core_cache_stats_breakdown[CONST_ACC_R][RESERVATION_FAIL] = 4886
	Total_core_cache_stats_breakdown[TEXTURE_ACC_R][HIT] = 0
	Total_core_cache_stats_breakdown[TEXTURE_ACC_R][HIT_RESERVED] = 0
	Total_core_cache_stats_breakdown[TEXTURE_ACC_R][MISS] = 0
	Total_core_cache_stats_breakdown[TEXTURE_ACC_R][RESERVATION_FAIL] = 0
	Total_core_cache_stats_breakdown[GLOBAL_ACC_W][HIT] = 0
	Total_core_cache_stats_breakdown[GLOBAL_ACC_W][HIT_RESERVED] = 0
	Total_core_cache_stats_breakdown[GLOBAL_ACC_W][MISS] = 0
	Total_core_cache_stats_breakdown[GLOBAL_ACC_W][RESERVATION_FAIL] = 0
	Total_core_cache_stats_breakdown[LOCAL_ACC_W][HIT] = 0
	Total_core_cache_stats_breakdown[LOCAL_ACC_W][HIT_RESERVED] = 0
	Total_core_cache_stats_breakdown[LOCAL_ACC_W][MISS] = 0
	Total_core_cache_stats_breakdown[LOCAL_ACC_W][RESERVATION_FAIL] = 0
	Total_core_cache_stats_breakdown[L1_WRBK_ACC][HIT] = 0
	Total_core_cache_stats_breakdown[L1_WRBK_ACC][HIT_RESERVED] = 0
	Total_core_cache_stats_breakdown[L1_WRBK_ACC][MISS] = 0
	Total_core_cache_stats_breakdown[L1_WRBK_ACC][RESERVATION_FAIL] = 0
	Total_core_cache_stats_breakdown[L2_WRBK_ACC][HIT] = 0
	Total_core_cache_stats_breakdown[L2_WRBK_ACC][HIT_RESERVED] = 0
	Total_core_cache_stats_breakdown[L2_WRBK_ACC][MISS] = 0
	Total_core_cache_stats_breakdown[L2_WRBK_ACC][RESERVATION_FAIL] = 0
	Total_core_cache_stats_breakdown[INST_ACC_R][HIT] = 37686
	Total_core_cache_stats_breakdown[INST_ACC_R][HIT_RESERVED] = 0
	Total_core_cache_stats_breakdown[INST_ACC_R][MISS] = 5466
	Total_core_cache_stats_breakdown[INST_ACC_R][RESERVATION_FAIL] = 16484
	Total_core_cache_stats_breakdown[L1_WR_ALLOC_R][HIT] = 0
	Total_core_cache_stats_breakdown[L1_WR_ALLOC_R][HIT_RESERVED] = 0
	Total_core_cache_stats_breakdown[L1_WR_ALLOC_R][MISS] = 0
	Total_core_cache_stats_breakdown[L1_WR_ALLOC_R][RESERVATION_FAIL] = 0
	Total_core_cache_stats_breakdown[L2_WR_ALLOC_R][HIT] = 0
	Total_core_cache_stats_breakdown[L2_WR_ALLOC_R][HIT_RESERVED] = 0
	Total_core_cache_stats_breakdown[L2_WR_ALLOC_R][MISS] = 0
	Total_core_cache_stats_breakdown[L2_WR_ALLOC_R][RESERVATION_FAIL] = 0
	Total_core_cache_stats_breakdown[CONST_ACC_R][TOTAL_ACCESS] = 24576
	Total_core_cache_stats_breakdown[INST_ACC_R][TOTAL_ACCESS] = 43152
Shader 0 warp_id issue ditsribution:
warp_id:
0, 1, 2, 3, 4, 5, 6, 7, 8, 9, 10, 11, 12, 13, 14, 15, 16, 17, 18, 19, 20, 21, 22, 23, 24, 25, 26, 27, 28, 29, 30, 31, 32, 33, 34, 35, 36, 37, 38, 39, 40, 41, 42, 43, 44, 45, 46, 47, 48, 49, 50, 51, 52, 53, 54, 55, 56, 57, 58, 59, 60, 61, 62, 63, 
distro:
44, 44, 43, 44, 43, 44, 43, 44, 44, 44, 44, 44, 44, 44, 44, 44, 44, 44, 44, 44, 44, 44, 44, 44, 44, 44, 44, 44, 44, 44, 44, 44, 44, 44, 44, 44, 44, 44, 44, 44, 44, 44, 44, 44, 44, 44, 44, 44, 44, 44, 44, 44, 44, 44, 44, 44, 44, 44, 44, 44, 44, 44, 44, 44, 
gpgpu_n_tot_thrd_icount = 2499680
gpgpu_n_tot_w_icount = 78115
gpgpu_n_stall_shd_mem = 5200
gpgpu_n_mem_read_local = 0
gpgpu_n_mem_write_local = 0
gpgpu_n_mem_read_global = 4138
gpgpu_n_mem_write_global = 49
gpgpu_n_mem_texture = 0
gpgpu_n_mem_const = 28
gpgpu_n_load_insn  = 131114
gpgpu_n_store_insn = 49
gpgpu_n_shmem_insn = 0
gpgpu_n_tex_insn = 0
gpgpu_n_const_mem_insn = 0
gpgpu_n_param_mem_insn = 786432
gpgpu_n_shmem_bkconflict = 0
gpgpu_n_cache_bkconflict = 0
gpgpu_n_intrawarp_mshr_merge = 0
gpgpu_n_cmem_portconflict = 4886
gpgpu_stall_shd_mem[c_mem][bk_conf] = 4886
gpgpu_stall_shd_mem[c_mem][mshr_rc] = 0
gpgpu_stall_shd_mem[c_mem][icnt_rc] = 0
gpgpu_stall_shd_mem[c_mem][data_port_stall] = 0
gpgpu_stall_shd_mem[t_mem][mshr_rc] = 0
gpgpu_stall_shd_mem[t_mem][icnt_rc] = 0
gpgpu_stall_shd_mem[t_mem][data_port_stall] = 0
gpgpu_stall_shd_mem[s_mem][bk_conf] = 0
gpgpu_stall_shd_mem[gl_mem][bk_conf] = 0
gpgpu_stall_shd_mem[gl_mem][coal_stall] = 1
gpgpu_stall_shd_mem[gl_mem][data_port_stall] = 0
gpgpu_stall_shd_mem[g_mem_ld][mshr_rc] = 0
[...]
F:  7252724----T:  7255329 	 St: 8040f000 Sz: 4096 	 Sm: 0 	 T: write_back(1.758947)
F:  7255329----T:  7257934 	 St: 802cf000 Sz: 4096 	 Sm: 0 	 T: memcpy_h2d(1.758947)
F:  7255329----T:  7257934 	 St: 803f8000 Sz: 4096 	 Sm: 0 	 T: write_back(1.758947)
F:  7257934----T:  7260539 	 St: 802e0000 Sz: 4096 	 Sm: 0 	 T: memcpy_h2d(1.758947)
F:  7257934----T:  7260539 	 St: 802fd000 Sz: 4096 	 Sm: 0 	 T: write_back(1.758947)
F:  7260539----T:  7263144 	 St: 80300000 Sz: 4096 	 Sm: 0 	 T: memcpy_h2d(1.758947)
F:  7260539----T:  7263144 	 St: 80306000 Sz: 4096 	 Sm: 0 	 T: write_back(1.758947)
F:  7263144----T:  7265749 	 St: 80322000 Sz: 4096 	 Sm: 0 	 T: memcpy_h2d(1.758947)
F:  7263144----T:  7265749 	 St: 80362000 Sz: 4096 	 Sm: 0 	 T: write_back(1.758947)
F:  7265749----T:  7268354 	 St: 80324000 Sz: 4096 	 Sm: 0 	 T: memcpy_h2d(1.758947)
F:  7265749----T:  7268354 	 St: 802d0000 Sz: 4096 	 Sm: 0 	 T: write_back(1.758947)
F:  7268354----T:  7270959 	 St: 8030f000 Sz: 4096 	 Sm: 0 	 T: memcpy_h2d(1.758947)
F:  7268354----T:  7270959 	 St: 803be000 Sz: 4096 	 Sm: 0 	 T: write_back(1.758947)
F:  7270959----T:  7273564 	 St: 80303000 Sz: 4096 	 Sm: 0 	 T: memcpy_h2d(1.758947)
F:  7270959----T:  7273564 	 St: 80385000 Sz: 4096 	 Sm: 0 	 T: write_back(1.758947)
F:  7273564----T:  7276169 	 St: 80358000 Sz: 4096 	 Sm: 0 	 T: memcpy_h2d(1.758947)
F:  7273564----T:  7276169 	 St: 802ee000 Sz: 4096 	 Sm: 0 	 T: write_back(1.758947)
F:  7276169----T:  7278774 	 St: 80388000 Sz: 4096 	 Sm: 0 	 T: memcpy_h2d(1.758947)
F:  7276169----T:  7278774 	 St: 802d3000 Sz: 4096 	 Sm: 0 	 T: write_back(1.758947)
F:  7278774----T:  7281379 	 St: 803da000 Sz: 4096 	 Sm: 0 	 T: memcpy_h2d(1.758947)
F:  7278774----T:  7281379 	 St: 804c5000 Sz: 4096 	 Sm: 0 	 T: write_back(1.758947)
F:  7281379----T:  7283984 	 St: 802f3000 Sz: 4096 	 Sm: 0 	 T: memcpy_h2d(1.758947)
F:  7281379----T:  7283984 	 St: 80336000 Sz: 4096 	 Sm: 0 	 T: write_back(1.758947)
F:  7283984----T:  7286589 	 St: 802f4000 Sz: 4096 	 Sm: 0 	 T: memcpy_h2d(1.758947)
F:  7283984----T:  7286589 	 St: 80425000 Sz: 4096 	 Sm: 0 	 T: write_back(1.758947)
F:  7286589----T:  7289194 	 St: 80312000 Sz: 4096 	 Sm: 0 	 T: memcpy_h2d(1.758947)
F:  7286589----T:  7289194 	 St: 80426000 Sz: 4096 	 Sm: 0 	 T: write_back(1.758947)
F:  7289194----T:  7291799 	 St: 80313000 Sz: 4096 	 Sm: 0 	 T: memcpy_h2d(1.758947)
F:  7289194----T:  7291799 	 St: 8028a000 Sz: 4096 	 Sm: 0 	 T: write_back(1.758947)
F:  7291799----T:  7294404 	 St: 80314000 Sz: 4096 	 Sm: 0 	 T: memcpy_h2d(1.758947)
F:  7291799----T:  7294404 	 St: 80416000 Sz: 4096 	 Sm: 0 	 T: write_back(1.758947)
F:  7294404----T:  7297009 	 St: 80311000 Sz: 4096 	 Sm: 0 	 T: memcpy_h2d(1.758947)
F:  7294404----T:  7297009 	 St: 80285000 Sz: 4096 	 Sm: 0 	 T: write_back(1.758947)
F:  7297009----T:  7299614 	 St: 80310000 Sz: 4096 	 Sm: 0 	 T: memcpy_h2d(1.758947)
F:  7297009----T:  7299614 	 St: 80417000 Sz: 4096 	 Sm: 0 	 T: write_back(1.758947)
F:  7299614----T:  7302219 	 St: 8030a000 Sz: 4096 	 Sm: 0 	 T: memcpy_h2d(1.758947)
F:  7299614----T:  7302219 	 St: 80427000 Sz: 4096 	 Sm: 0 	 T: write_back(1.758947)
F:  7302219----T:  7304824 	 St: 8030b000 Sz: 4096 	 Sm: 0 	 T: memcpy_h2d(1.758947)
F:  7302219----T:  7304824 	 St: 8028b000 Sz: 4096 	 Sm: 0 	 T: write_back(1.758947)
F:  7304824----T:  7307429 	 St: 8030c000 Sz: 4096 	 Sm: 0 	 T: memcpy_h2d(1.758947)
F:  7304824----T:  7307429 	 St: 80428000 Sz: 4096 	 Sm: 0 	 T: write_back(1.758947)
F:  7307429----T:  7310034 	 St: 802fa000 Sz: 4096 	 Sm: 0 	 T: memcpy_h2d(1.758947)
F:  7307429----T:  7310034 	 St: 80429000 Sz: 4096 	 Sm: 0 	 T: write_back(1.758947)
F:  7310034----T:  7312639 	 St: 802fb000 Sz: 4096 	 Sm: 0 	 T: memcpy_h2d(1.758947)
F:  7310034----T:  7312639 	 St: 8041f000 Sz: 4096 	 Sm: 0 	 T: write_back(1.758947)
F:  7312639----T:  7315244 	 St: 802fc000 Sz: 4096 	 Sm: 0 	 T: memcpy_h2d(1.758947)
F:  7312639----T:  7315244 	 St: 80288000 Sz: 4096 	 Sm: 0 	 T: write_back(1.758947)
F:  7315244----T:  7317849 	 St: 802e6000 Sz: 4096 	 Sm: 0 	 T: memcpy_h2d(1.758947)
F:  7315244----T:  7317849 	 St: 80420000 Sz: 4096 	 Sm: 0 	 T: write_back(1.758947)
F:  7317849----T:  7320454 	 St: 802e7000 Sz: 4096 	 Sm: 0 	 T: memcpy_h2d(1.758947)
F:  7317849----T:  7320454 	 St: 804c9000 Sz: 4096 	 Sm: 0 	 T: write_back(1.758947)
F:  7320454----T:  7323059 	 St: 802e8000 Sz: 4096 	 Sm: 0 	 T: memcpy_h2d(1.758947)
F:  7320454----T:  7323059 	 St: 80421000 Sz: 4096 	 Sm: 0 	 T: write_back(1.758947)
F:  7323059----T:  7325664 	 St: 80315000 Sz: 4096 	 Sm: 0 	 T: memcpy_h2d(1.758947)
F:  7323059----T:  7325664 	 St: 80424000 Sz: 4096 	 Sm: 0 	 T: write_back(1.758947)
F:  7325664----T:  7328269 	 St: 80316000 Sz: 4096 	 Sm: 0 	 T: memcpy_h2d(1.758947)
F:  7325664----T:  7328269 	 St: 80289000 Sz: 4096 	 Sm: 0 	 T: write_back(1.758947)
F:  7328269----T:  7330874 	 St: 80318000 Sz: 4096 	 Sm: 0 	 T: memcpy_h2d(1.758947)
F:  7328269----T:  7330874 	 St: 80422000 Sz: 4096 	 Sm: 0 	 T: write_back(1.758947)
F:  7330874----T:  7333479 	 St: 802c9000 Sz: 4096 	 Sm: 0 	 T: memcpy_h2d(1.758947)
F:  7330874----T:  7333479 	 St: 80423000 Sz: 4096 	 Sm: 0 	 T: write_back(1.758947)
F:  7333479----T:  7336084 	 St: 802ca000 Sz: 4096 	 Sm: 0 	 T: memcpy_h2d(1.758947)
F:  7333479----T:  7336084 	 St: 804f7000 Sz: 4096 	 Sm: 0 	 T: write_back(1.758947)
F:  7336084----T:  7338689 	 St: 80302000 Sz: 4096 	 Sm: 0 	 T: memcpy_h2d(1.758947)
F:  7336084----T:  7338689 	 St: 80418000 Sz: 4096 	 Sm: 0 	 T: write_back(1.758947)
F:  7338689----T:  7341294 	 St: 80301000 Sz: 4096 	 Sm: 0 	 T: memcpy_h2d(1.758947)
F:  7338689----T:  7341294 	 St: 804ee000 Sz: 4096 	 Sm: 0 	 T: write_back(1.758947)
F:  7341294----T:  7343899 	 St: 802cb000 Sz: 4096 	 Sm: 0 	 T: memcpy_h2d(1.758947)
F:  7341294----T:  7343899 	 St: 80286000 Sz: 4096 	 Sm: 0 	 T: write_back(1.758947)
F:  7343899----T:  7346504 	 St: 802cc000 Sz: 4096 	 Sm: 0 	 T: memcpy_h2d(1.758947)
F:  7343899----T:  7346504 	 St: 80419000 Sz: 4096 	 Sm: 0 	 T: write_back(1.758947)
F:  7346504----T:  7349109 	 St: 802cd000 Sz: 4096 	 Sm: 0 	 T: memcpy_h2d(1.758947)
F:  7346504----T:  7349109 	 St: 8041a000 Sz: 4096 	 Sm: 0 	 T: write_back(1.758947)
F:  7349109----T:  7351714 	 St: 802f7000 Sz: 4096 	 Sm: 0 	 T: memcpy_h2d(1.758947)
F:  7349109----T:  7351714 	 St: 8041b000 Sz: 4096 	 Sm: 0 	 T: write_back(1.758947)
F:  7351714----T:  7354319 	 St: 802f9000 Sz: 4096 	 Sm: 0 	 T: memcpy_h2d(1.758947)
F:  7351714----T:  7354319 	 St: 8041e000 Sz: 4096 	 Sm: 0 	 T: write_back(1.758947)
F:  7354319----T:  7356924 	 St: 802f8000 Sz: 4096 	 Sm: 0 	 T: memcpy_h2d(1.758947)
F:  7354319----T:  7356924 	 St: 804fe000 Sz: 4096 	 Sm: 0 	 T: write_back(1.758947)
F:  7356924----T:  7359529 	 St: 802db000 Sz: 4096 	 Sm: 0 	 T: memcpy_h2d(1.758947)
F:  7356924----T:  7359529 	 St: 80287000 Sz: 4096 	 Sm: 0 	 T: write_back(1.758947)
F:  7359529----T:  7362134 	 St: 802ef000 Sz: 4096 	 Sm: 0 	 T: memcpy_h2d(1.758947)
F:  7359529----T:  7362134 	 St: 8041c000 Sz: 4096 	 Sm: 0 	 T: write_back(1.758947)
F:  7362134----T:  7364739 	 St: 802f1000 Sz: 4096 	 Sm: 0 	 T: memcpy_h2d(1.758947)
F:  7362134----T:  7364739 	 St: 8041d000 Sz: 4096 	 Sm: 0 	 T: write_back(1.758947)
F:  7364739----T:  7367344 	 St: 802f6000 Sz: 4096 	 Sm: 0 	 T: memcpy_h2d(1.758947)
F:  7364739----T:  7367344 	 St: 8042a000 Sz: 4096 	 Sm: 0 	 T: write_back(1.758947)
F:  7367344----T:  7369949 	 St: 80325000 Sz: 4096 	 Sm: 0 	 T: memcpy_h2d(1.758947)
F:  7367344----T:  7369949 	 St: 804db000 Sz: 4096 	 Sm: 0 	 T: write_back(1.758947)
F:  7369949----T:  7372554 	 St: 80326000 Sz: 4096 	 Sm: 0 	 T: memcpy_h2d(1.758947)
F:  7369949----T:  7372554 	 St: 8028c000 Sz: 4096 	 Sm: 0 	 T: write_back(1.758947)
F:  7372554----T:  7375159 	 St: 80327000 Sz: 4096 	 Sm: 0 	 T: memcpy_h2d(1.758947)
F:  7372554----T:  7375159 	 St: 804f3000 Sz: 4096 	 Sm: 0 	 T: write_back(1.758947)
F:  7375159----T:  7377764 	 St: 80328000 Sz: 4096 	 Sm: 0 	 T: memcpy_h2d(1.758947)
F:  7375159----T:  7377764 	 St: 8042c000 Sz: 4096 	 Sm: 0 	 T: write_back(1.758947)
F:  7377764----T:  7380369 	 St: 8032a000 Sz: 4096 	 Sm: 0 	 T: memcpy_h2d(1.758947)
F:  7377764----T:  7380369 	 St: 8042b000 Sz: 4096 	 Sm: 0 	 T: write_back(1.758947)
F:  7380369----T:  7382974 	 St: 80329000 Sz: 4096 	 Sm: 0 	 T: memcpy_h2d(1.758947)
F:  7380369----T:  7382974 	 St: 804ec000 Sz: 4096 	 Sm: 0 	 T: write_back(1.758947)
F:  7382974----T:  7385579 	 St: 8032b000 Sz: 4096 	 Sm: 0 	 T: memcpy_h2d(1.758947)
F:  7382974----T:  7385579 	 St: 8043d000 Sz: 4096 	 Sm: 0 	 T: write_back(1.758947)
F:  7385579----T:  7388184 	 St: 8032c000 Sz: 4096 	 Sm: 0 	 T: memcpy_h2d(1.758947)
F:  7385579----T:  7388184 	 St: 80292000 Sz: 4096 	 Sm: 0 	 T: write_back(1.758947)
F:  7388184----T:  7390789 	 St: 80340000 Sz: 4096 	 Sm: 0 	 T: memcpy_h2d(1.758947)
F:  7388184----T:  7390789 	 St: 804e9000 Sz: 4096 	 Sm: 0 	 T: write_back(1.758947)
F:  7390789----T:  7393394 	 St: 80341000 Sz: 4096 	 Sm: 0 	 T: memcpy_h2d(1.758947)
F:  7390789----T:  7393394 	 St: 8043e000 Sz: 4096 	 Sm: 0 	 T: write_back(1.758947)
F:  7393394----T:  7395999 	 St: 80342000 Sz: 4096 	 Sm: 0 	 T: memcpy_h2d(1.758947)
F:  7393394----T:  7395999 	 St: 804fb000 Sz: 4096 	 Sm: 0 	 T: write_back(1.758947)
F:  7395999----T:  7398604 	 St: 8033d000 Sz: 4096 	 Sm: 0 	 T: memcpy_h2d(1.758947)
F:  7395999----T:  7398604 	 St: 804ff000 Sz: 4096 	 Sm: 0 	 T: write_back(1.758947)
F:  7398604----T:  7401209 	 St: 8033e000 Sz: 4096 	 Sm: 0 	 T: memcpy_h2d(1.758947)
F:  7398604----T:  7401209 	 St: 80434000 Sz: 4096 	 Sm: 0 	 T: write_back(1.758947)
F:  7401209----T:  7403814 	 St: 8033f000 Sz: 4096 	 Sm: 0 	 T: memcpy_h2d(1.758947)
F:  7401209----T:  7403814 	 St: 804e8000 Sz: 4096 	 Sm: 0 	 T: write_back(1.758947)
F:  7403814----T:  7406419 	 St: 80337000 Sz: 4096 	 Sm: 0 	 T: memcpy_h2d(1.758947)
F:  7403814----T:  7406419 	 St: 804d7000 Sz: 4096 	 Sm: 0 	 T: write_back(1.758947)
F:  7406419----T:  7409024 	 St: 80338000 Sz: 4096 	 Sm: 0 	 T: memcpy_h2d(1.758947)
F:  7406419----T:  7409024 	 St: 8028f000 Sz: 4096 	 Sm: 0 	 T: write_back(1.758947)
F:  7409024----T:  7411629 	 St: 80339000 Sz: 4096 	 Sm: 0 	 T: memcpy_h2d(1.758947)
F:  7409024----T:  7411629 	 St: 80435000 Sz: 4096 	 Sm: 0 	 T: write_back(1.758947)
F:  7411629----T:  7414234 	 St: 80319000 Sz: 4096 	 Sm: 0 	 T: memcpy_h2d(1.758947)
F:  7411629----T:  7414234 	 St: 804c7000 Sz: 4096 	 Sm: 0 	 T: write_back(1.758947)
F:  7414234----T:  7416839 	 St: 8031a000 Sz: 4096 	 Sm: 0 	 T: memcpy_h2d(1.758947)
F:  7414234----T:  7416839 	 St: 804f9000 Sz: 4096 	 Sm: 0 	 T: write_back(1.758947)
F:  7416839----T:  7419444 	 St: 80386000 Sz: 4096 	 Sm: 0 	 T: memcpy_h2d(1.758947)
F:  7416839----T:  7419444 	 St: 80436000 Sz: 4096 	 Sm: 0 	 T: write_back(1.758947)
F:  7419444----T:  7422049 	 St: 80387000 Sz: 4096 	 Sm: 0 	 T: memcpy_h2d(1.758947)
F:  7419444----T:  7422049 	 St: 80437000 Sz: 4096 	 Sm: 0 	 T: write_back(1.758947)
F:  7422049----T:  7424654 	 St: 803b7000 Sz: 4096 	 Sm: 0 	 T: memcpy_h2d(1.758947)
F:  7422049----T:  7424654 	 St: 804f1000 Sz: 4096 	 Sm: 0 	 T: write_back(1.758947)
F:  7424654----T:  7427259 	 St: 803b5000 Sz: 4096 	 Sm: 0 	 T: memcpy_h2d(1.758947)
F:  7424654----T:  7427259 	 St: 804cd000 Sz: 4096 	 Sm: 0 	 T: write_back(1.758947)
F:  7427260----T:  7429865 	 St: 803b6000 Sz: 4096 	 Sm: 0 	 T: memcpy_h2d(1.758947)
F:  7427260----T:  7429865 	 St: 80290000 Sz: 4096 	 Sm: 0 	 T: write_back(1.758947)
F:  7430232----T:  7432837 	 St: 80290000 Sz: 4096 	 Sm: 0 	 T: memcpy_h2d(1.758947)
F:  7430232----T:  7432837 	 St: 804ed000 Sz: 4096 	 Sm: 0 	 T: write_back(1.758947)
F:  7432837----T:  7435442 	 St: 80285000 Sz: 4096 	 Sm: 0 	 T: memcpy_h2d(1.758947)
F:  7432837----T:  7435442 	 St: 80438000 Sz: 4096 	 Sm: 0 	 T: write_back(1.758947)
F:  7435442----T:  7438047 	 St: 80287000 Sz: 4096 	 Sm: 0 	 T: memcpy_h2d(1.758947)
F:  7435442----T:  7438047 	 St: 804e1000 Sz: 4096 	 Sm: 0 	 T: write_back(1.758947)
F:  7438047----T:  7440652 	 St: 8028f000 Sz: 4096 	 Sm: 0 	 T: memcpy_h2d(1.758947)
F:  7438047----T:  7440652 	 St: 804d3000 Sz: 4096 	 Sm: 0 	 T: write_back(1.758947)
F:  7440652----T:  7443257 	 St: 80286000 Sz: 4096 	 Sm: 0 	 T: memcpy_h2d(1.758947)
F:  7440652----T:  7443257 	 St: 804e3000 Sz: 4096 	 Sm: 0 	 T: write_back(1.758947)
F:  7443257----T:  7445862 	 St: 80288000 Sz: 4096 	 Sm: 0 	 T: memcpy_h2d(1.758947)
F:  7443257----T:  7445862 	 St: 804dc000 Sz: 4096 	 Sm: 0 	 T: write_back(1.758947)
F:  7445862----T:  7448467 	 St: 8028c000 Sz: 4096 	 Sm: 0 	 T: memcpy_h2d(1.758947)
F:  7445862----T:  7448467 	 St: 804e4000 Sz: 4096 	 Sm: 0 	 T: write_back(1.758947)
F:  7448467----T:  7451072 	 St: 80289000 Sz: 4096 	 Sm: 0 	 T: memcpy_h2d(1.758947)
F:  7448467----T:  7451072 	 St: 80439000 Sz: 4096 	 Sm: 0 	 T: write_back(1.758947)
F:  7451072----T:  7453677 	 St: 8028b000 Sz: 4096 	 Sm: 0 	 T: memcpy_h2d(1.758947)
F:  7451072----T:  7453677 	 St: 804c6000 Sz: 4096 	 Sm: 0 	 T: write_back(1.758947)
F:  7453677----T:  7456282 	 St: 8028a000 Sz: 4096 	 Sm: 0 	 T: memcpy_h2d(1.758947)
F:  7453677----T:  7456282 	 St: 804e6000 Sz: 4096 	 Sm: 0 	 T: write_back(1.758947)
F:  7456282----T:  7458887 	 St: 80292000 Sz: 4096 	 Sm: 0 	 T: memcpy_h2d(1.758947)
F:  7456282----T:  7458887 	 St: 804ea000 Sz: 4096 	 Sm: 0 	 T: write_back(1.758947)
F:  7458887----T:  7461492 	 St: 80436000 Sz: 4096 	 Sm: 0 	 T: memcpy_h2d(1.758947)
F:  7458887----T:  7461492 	 St: 804da000 Sz: 4096 	 Sm: 0 	 T: write_back(1.758947)
F:  7461492----T:  7464097 	 St: 80437000 Sz: 4096 	 Sm: 0 	 T: memcpy_h2d(1.758947)
F:  7461492----T:  7464097 	 St: 804d4000 Sz: 4096 	 Sm: 0 	 T: write_back(1.758947)
F:  7464097----T:  7466702 	 St: 80438000 Sz: 4096 	 Sm: 0 	 T: memcpy_h2d(1.758947)
F:  7464097----T:  7466702 	 St: 804df000 Sz: 4096 	 Sm: 0 	 T: write_back(1.758947)
F:  7466702----T:  7469307 	 St: 80416000 Sz: 4096 	 Sm: 0 	 T: memcpy_h2d(1.758947)
F:  7466702----T:  7469307 	 St: 804ef000 Sz: 4096 	 Sm: 0 	 T: write_back(1.758947)
F:  7469307----T:  7471912 	 St: 8041b000 Sz: 4096 	 Sm: 0 	 T: memcpy_h2d(1.758947)
F:  7469307----T:  7471912 	 St: 804e5000 Sz: 4096 	 Sm: 0 	 T: write_back(1.758947)
F:  7471912----T:  7474517 	 St: 8041d000 Sz: 4096 	 Sm: 0 	 T: memcpy_h2d(1.758947)
F:  7471912----T:  7474517 	 St: 804e0000 Sz: 4096 	 Sm: 0 	 T: write_back(1.758947)
F:  7474517----T:  7477122 	 St: 80434000 Sz: 4096 	 Sm: 0 	 T: memcpy_h2d(1.758947)
F:  7474517----T:  7477122 	 St: 804f0000 Sz: 4096 	 Sm: 0 	 T: write_back(1.758947)
F:  7477122----T:  7479727 	 St: 80435000 Sz: 4096 	 Sm: 0 	 T: memcpy_h2d(1.758947)
F:  7477122----T:  7479727 	 St: 804cf000 Sz: 4096 	 Sm: 0 	 T: write_back(1.758947)
F:  7479727----T:  7482332 	 St: 8041a000 Sz: 4096 	 Sm: 0 	 T: memcpy_h2d(1.758947)
F:  7479727----T:  7482332 	 St: 804c8000 Sz: 4096 	 Sm: 0 	 T: write_back(1.758947)
F:  7482332----T:  7484937 	 St: 80419000 Sz: 4096 	 Sm: 0 	 T: memcpy_h2d(1.758947)
F:  7482332----T:  7484937 	 St: 804eb000 Sz: 4096 	 Sm: 0 	 T: write_back(1.758947)
F:  7484937----T:  7487542 	 St: 80420000 Sz: 4096 	 Sm: 0 	 T: memcpy_h2d(1.758947)
F:  7484937----T:  7487542 	 St: 80503000 Sz: 4096 	 Sm: 0 	 T: write_back(1.758947)
F:  7487542----T:  7490147 	 St: 8041f000 Sz: 4096 	 Sm: 0 	 T: memcpy_h2d(1.758947)
F:  7487542----T:  7490147 	 St: 804dd000 Sz: 4096 	 Sm: 0 	 T: write_back(1.758947)
F:  7490147----T:  7492752 	 St: 8042a000 Sz: 4096 	 Sm: 0 	 T: memcpy_h2d(1.758947)
F:  7490147----T:  7492752 	 St: 8042d000 Sz: 4096 	 Sm: 0 	 T: write_back(1.758947)
F:  7492752----T:  7495357 	 St: 8042c000 Sz: 4096 	 Sm: 0 	 T: memcpy_h2d(1.758947)
F:  7492752----T:  7495357 	 St: 804d5000 Sz: 4096 	 Sm: 0 	 T: write_back(1.758947)
F:  7495357----T:  7497962 	 St: 8042b000 Sz: 4096 	 Sm: 0 	 T: memcpy_h2d(1.758947)
F:  7495357----T:  7497962 	 St: 804de000 Sz: 4096 	 Sm: 0 	 T: write_back(1.758947)
F:  7497962----T:  7500567 	 St: 80421000 Sz: 4096 	 Sm: 0 	 T: memcpy_h2d(1.758947)
F:  7497962----T:  7500567 	 St: 804ce000 Sz: 4096 	 Sm: 0 	 T: write_back(1.758947)
F:  7500567----T:  7503172 	 St: 80422000 Sz: 4096 	 Sm: 0 	 T: memcpy_h2d(1.758947)
F:  7500567----T:  7503172 	 St: 804ca000 Sz: 4096 	 Sm: 0 	 T: write_back(1.758947)
F:  7503172----T:  7505777 	 St: 80423000 Sz: 4096 	 Sm: 0 	 T: memcpy_h2d(1.758947)
F:  7503172----T:  7505777 	 St: 804f4000 Sz: 4096 	 Sm: 0 	 T: write_back(1.758947)
F:  7505777----T:  7508382 	 St: 80427000 Sz: 4096 	 Sm: 0 	 T: memcpy_h2d(1.758947)
F:  7505777----T:  7508382 	 St: 804f5000 Sz: 4096 	 Sm: 0 	 T: write_back(1.758947)
F:  7508382----T:  7510987 	 St: 80428000 Sz: 4096 	 Sm: 0 	 T: memcpy_h2d(1.758947)
F:  7508382----T:  7510987 	 St: 804cc000 Sz: 4096 	 Sm: 0 	 T: write_back(1.758947)
F:  7510987----T:  7513592 	 St: 80429000 Sz: 4096 	 Sm: 0 	 T: memcpy_h2d(1.758947)
F:  7510987----T:  7513592 	 St: 804d2000 Sz: 4096 	 Sm: 0 	 T: write_back(1.758947)
F:  7513592----T:  7516197 	 St: 80424000 Sz: 4096 	 Sm: 0 	 T: memcpy_h2d(1.758947)
F:  7513592----T:  7516197 	 St: 804d6000 Sz: 4096 	 Sm: 0 	 T: write_back(1.758947)
F:  7516197----T:  7518802 	 St: 80425000 Sz: 4096 	 Sm: 0 	 T: memcpy_h2d(1.758947)
F:  7516197----T:  7518802 	 St: 804d1000 Sz: 4096 	 Sm: 0 	 T: write_back(1.758947)
F:  7518802----T:  7521407 	 St: 80426000 Sz: 4096 	 Sm: 0 	 T: memcpy_h2d(1.758947)
F:  7518802----T:  7521407 	 St: 804d0000 Sz: 4096 	 Sm: 0 	 T: write_back(1.758947)
F:  7521407----T:  7524012 	 St: 8043e000 Sz: 4096 	 Sm: 0 	 T: memcpy_h2d(1.758947)
F:  7521407----T:  7524012 	 St: 804e7000 Sz: 4096 	 Sm: 0 	 T: write_back(1.758947)
F:  7524012----T:  7526617 	 St: 8043d000 Sz: 4096 	 Sm: 0 	 T: memcpy_h2d(1.758947)
F:  7524012----T:  7526617 	 St: 804f8000 Sz: 4096 	 Sm: 0 	 T: write_back(1.758947)
F:  7526618----T:  7529223 	 St: 8042d000 Sz: 4096 	 Sm: 0 	 T: memcpy_h2d(1.758947)
F:  7526618----T:  7529223 	 St: 804f6000 Sz: 4096 	 Sm: 0 	 T: write_back(1.758947)
F:  7752027----T:  7753125 	 	 	 Kl: 18 	 Sm: 0 	 T: kernel_launch(0.741391)
F:  7753125----T:  7755660 	 St: 80000000 Sz: 1 	 Sm: 0 	 T: memcpy_d2h(1.711681)
F:  7755661----T:  7758196 	 St: 80000000 Sz: 1 	 Sm: 0 	 T: memcpy_h2d(1.711681)
F:  7980347----T:  7984229 	 	 	 Kl: 19 	 Sm: 0 	 T: kernel_launch(2.621202)
F:  7981301----T:  7983906 	 St: 802ee000 Sz: 4096 	 Sm: 0 	 T: memcpy_h2d(1.758947)
F:  7981301----T:  7983906 	 St: 80501000 Sz: 4096 	 Sm: 0 	 T: write_back(1.758947)
F:  8206379----T:  8207352 	 	 	 Kl: 20 	 Sm: 0 	 T: kernel_launch(0.656989)
F:  8207352----T:  8209887 	 St: 80000000 Sz: 1 	 Sm: 0 	 T: memcpy_d2h(1.711681)
F:  8209888----T:  8212493 	 St: 0 Sz: 4096 	 Sm: 0 	 T: device_sync(1.758947)
F:  8209888----T:  8218128 	 St: 0 Sz: 61440 	 Sm: 0 	 T: device_sync(5.563808)
F:  8220733----T:  8223338 	 St: 0 Sz: 4096 	 Sm: 0 	 T: device_sync(1.758947)
F:  8220733----T:  8228973 	 St: 0 Sz: 61440 	 Sm: 0 	 T: device_sync(5.563808)
F:  8231578----T:  8234183 	 St: 0 Sz: 4096 	 Sm: 0 	 T: device_sync(1.758947)
F:  8231578----T:  8247273 	 St: 0 Sz: 126976 	 Sm: 0 	 T: device_sync(10.597569)
F:  8249878----T:  8252483 	 St: 0 Sz: 4096 	 Sm: 0 	 T: device_sync(1.758947)
F:  8249878----T:  8280601 	 St: 0 Sz: 258048 	 Sm: 0 	 T: device_sync(20.744766)
F:  8283206----T:  8285811 	 St: 0 Sz: 4096 	 Sm: 0 	 T: device_sync(1.758947)
F:  8283206----T:  8301714 	 St: 0 Sz: 151552 	 Sm: 0 	 T: device_sync(12.496962)
Tot_prefetch_time: 0(cycle), 0.000000(us)
Tot_kernel_exec_time: 3716168(cycle), 2509.229004(us)
Tot_kernel_exec_time_and_fault_time: 76359218(cycle), 51559.226562(us)
Tot_memcpy_h2d_time: 3225741(cycle), 2178.083008(us)
Tot_memcpy_d2h_time: 25350(cycle), 17.116814(us)
Tot_memcpy_time: 3251091(cycle), 2195.199951(us)
Tot_devicesync_time: 94431(cycle), 63.761646(us)
Tot_writeback_time: 3360450(cycle), 2269.041260(us)
Tot_rdma_time: 0(cycle), 0.000000(us)
Tot_memcpy_d2h_sync_wb_time: 3480231(cycle), 2349.919678(us)
GPGPU-Sim: *** exit detected ***
