

        *** GPGPU-Sim Simulator Version 3.2.2  [build gpgpu-sim_git-commit-c8c883f82f149f8a735f810bff4b4328d99c95c2_modified_0] ***


GPGPU-Sim PTX: simulation mode 0 (can change with PTX_SIM_MODE_FUNC environment variable:
               1=functional simulation only, 0=detailed performance simulator)
GPGPU-Sim: Configuration options:

-network_mode                           1 # Interconnection network mode
-inter_config_file   config_fermi_islip.icnt # Interconnection network config file
-gpgpu_ptx_use_cuobjdump                    1 # Use cuobjdump to extract ptx and sass from binaries
-gpgpu_experimental_lib_support                    0 # Try to extract code from cuda libraries [Broken because of unknown cudaGetExportTable]
-gpgpu_ptx_convert_to_ptxplus                    0 # Convert SASS (native ISA) to ptxplus and run ptxplus
-gpgpu_ptx_force_max_capability                   20 # Force maximum compute capability
-gpgpu_ptx_inst_debug_to_file                    0 # Dump executed instructions' debug information to file
-gpgpu_ptx_inst_debug_file       inst_debug.txt # Executed instructions' debug output file
-gpgpu_ptx_inst_debug_thread_uid                    1 # Thread UID for executed instructions' debug output
-gpgpu_simd_model                       1 # 1 = post-dominator
-gpgpu_shader_core_pipeline              2048:32 # shader core pipeline config, i.e., {<nthread>:<warpsize>}
-gpgpu_tex_cache:l1  16:128:24,L:R:m:N:L,F:128:4,128:2 # per-shader L1 texture cache  (READ-ONLY) config  {<nsets>:<bsize>:<assoc>,<rep>:<wr>:<alloc>:<wr_alloc>,<mshr>:<N>:<merge>,<mq>:<rf>}
-gpgpu_const_cache:l1 128:64:2,L:R:f:N:L,A:2:64,4 # per-shader L1 constant memory cache  (READ-ONLY) config  {<nsets>:<bsize>:<assoc>,<rep>:<wr>:<alloc>:<wr_alloc>,<mshr>:<N>:<merge>,<mq>} 
-gpgpu_cache:il1     8:128:4,L:R:f:N:L,A:2:48,4 # shader L1 instruction cache config  {<nsets>:<bsize>:<assoc>,<rep>:<wr>:<alloc>:<wr_alloc>,<mshr>:<N>:<merge>,<mq>} 
-gpgpu_cache:dl1     64:128:6,L:L:m:N:H,A:128:8,8 # per-shader L1 data cache config  {<nsets>:<bsize>:<assoc>,<rep>:<wr>:<alloc>:<wr_alloc>,<mshr>:<N>:<merge>,<mq> | none}
-gpgpu_cache:dl1PrefL1                 none # per-shader L1 data cache config  {<nsets>:<bsize>:<assoc>,<rep>:<wr>:<alloc>:<wr_alloc>,<mshr>:<N>:<merge>,<mq> | none}
-gpgpu_cache:dl1PrefShared                 none # per-shader L1 data cache config  {<nsets>:<bsize>:<assoc>,<rep>:<wr>:<alloc>:<wr_alloc>,<mshr>:<N>:<merge>,<mq> | none}
-gmem_skip_L1D                          1 # global memory access skip L1D cache (implements -Xptxas -dlcm=cg, default=no skip)
-gpgpu_perfect_mem                      0 # enable perfect memory mode (no cache miss)
-n_regfile_gating_group                    4 # group of lanes that should be read/written together)
-gpgpu_clock_gated_reg_file                    0 # enable clock gated reg file for power calculations
-gpgpu_clock_gated_lanes                    0 # enable clock gated lanes for power calculations
-gpgpu_shader_registers                65536 # Number of registers per shader core. Limits number of concurrent CTAs. (default 8192)
-gpgpu_shader_cta                      32 # Maximum number of concurrent CTAs in shader (default 8)
-gpgpu_num_cta_barriers                   16 # Maximum number of named barriers per CTA (default 16)
-gpgpu_n_clusters                      28 # number of processing clusters
-gpgpu_n_cores_per_cluster                    1 # number of simd cores per cluster
-gpgpu_n_cluster_ejection_buffer_size                    8 # number of packets in ejection buffer
-gpgpu_n_ldst_response_buffer_size                    2 # number of response packets in ld/st unit ejection buffer
-gpgpu_shmem_size                   16384 # Size of shared memory per shader core (default 16kB)
-gpgpu_shmem_size                   98304 # Size of shared memory per shader core (default 16kB)
-gpgpu_shmem_size_PrefL1                16384 # Size of shared memory per shader core (default 16kB)
-gpgpu_shmem_size_PrefShared                16384 # Size of shared memory per shader core (default 16kB)
-gpgpu_shmem_num_banks                   32 # Number of banks in the shared memory in each shader core (default 16)
-gpgpu_shmem_limited_broadcast                    0 # Limit shared memory to do one broadcast per cycle (default on)
-gpgpu_shmem_warp_parts                    1 # Number of portions a warp is divided into for shared memory bank conflict check 
-gpgpu_warpdistro_shader                   -1 # Specify which shader core to collect the warp size distribution from
-gpgpu_warp_issue_shader                    0 # Specify which shader core to collect the warp issue distribution from
-gpgpu_local_mem_map                    1 # Mapping from local memory space address to simulated GPU physical address space (default = enabled)
-gpgpu_num_reg_banks                   32 # Number of register banks (default = 8)
-gpgpu_reg_bank_use_warp_id                    0 # Use warp ID in mapping registers to banks (default = off)
-gpgpu_operand_collector_num_units_sp                   20 # number of collector units (default = 4)
-gpgpu_operand_collector_num_units_sfu                    4 # number of collector units (default = 4)
-gpgpu_operand_collector_num_units_mem                    8 # number of collector units (default = 2)
-gpgpu_operand_collector_num_units_gen                    0 # number of collector units (default = 0)
-gpgpu_operand_collector_num_in_ports_sp                    4 # number of collector unit in ports (default = 1)
-gpgpu_operand_collector_num_in_ports_sfu                    1 # number of collector unit in ports (default = 1)
-gpgpu_operand_collector_num_in_ports_mem                    1 # number of collector unit in ports (default = 1)
-gpgpu_operand_collector_num_in_ports_gen                    0 # number of collector unit in ports (default = 0)
-gpgpu_operand_collector_num_out_ports_sp                    4 # number of collector unit in ports (default = 1)
-gpgpu_operand_collector_num_out_ports_sfu                    1 # number of collector unit in ports (default = 1)
-gpgpu_operand_collector_num_out_ports_mem                    1 # number of collector unit in ports (default = 1)
-gpgpu_operand_collector_num_out_ports_gen                    0 # number of collector unit in ports (default = 0)
-gpgpu_coalesce_arch                   13 # Coalescing arch (default = 13, anything else is off for now)
-gpgpu_num_sched_per_core                    2 # Number of warp schedulers per core
-gpgpu_max_insn_issue_per_warp                    2 # Max number of instructions that can be issued per warp in one cycle by scheduler
-gpgpu_simt_core_sim_order                    1 # Select the simulation order of cores in a cluster (0=Fix, 1=Round-Robin)
-gpgpu_pipeline_widths        4,1,1,4,1,1,6 # Pipeline widths ID_OC_SP,ID_OC_SFU,ID_OC_MEM,OC_EX_SP,OC_EX_SFU,OC_EX_MEM,EX_WB
-gpgpu_num_sp_units                     4 # Number of SP units (default=1)
-gpgpu_num_sfu_units                    1 # Number of SF units (default=1)
-gpgpu_num_mem_units                    1 # Number if ldst units (default=1) WARNING: not hooked up to anything
-gpgpu_scheduler                      gto # Scheduler configuration: < lrr | gto | two_level_active > If two_level_active:<num_active_warps>:<inner_prioritization>:<outer_prioritization>For complete list of prioritization values see shader.h enum scheduler_prioritization_typeDefault: gto
-gpgpu_concurrent_kernel_sm                    0 # Support concurrent kernels on a SM (default = disabled)
-tlb_size                            4096 # Number of tlb entries per SM.
-gpgpu_dram_scheduler                    1 # 0 = fifo, 1 = FR-FCFS (defaul)
-gpgpu_dram_partition_queues              8:8:8:8 # i2$:$2d:d2$:$2i
-l2_ideal                               0 # Use a ideal L2 cache that always hit
-gpgpu_cache:dl2     64:128:16,L:B:m:W:L,A:1024:1024,4:0,32 # unified banked L2 data cache config  {<nsets>:<bsize>:<assoc>,<rep>:<wr>:<alloc>:<wr_alloc>,<mshr>:<N>:<merge>,<mq>}
-gpgpu_cache:dl2_texture_only                    0 # L2 cache used for texture only
-gpgpu_n_mem                           11 # number of memory modules (e.g. memory controllers) in gpu
-gpgpu_n_sub_partition_per_mchannel                    2 # number of memory subpartition in each memory module
-gpgpu_n_mem_per_ctrlr                    1 # number of memory chips per memory controller
-gpgpu_memlatency_stat                   14 # track and display latency statistics 0x2 enables MC, 0x4 enables queue logs
-gpgpu_frfcfs_dram_sched_queue_size                   64 # 0 = unlimited (default); # entries per chip
-gpgpu_dram_return_queue_size                  116 # 0 = unlimited (default); # entries per chip
-gpgpu_dram_buswidth                    4 # default = 4 bytes (8 bytes per cycle at DDR)
-gpgpu_dram_burst_length                    8 # Burst length of each DRAM request (default = 4 data bus cycle)
-dram_data_command_freq_ratio                    4 # Frequency ratio between DRAM data bus and command bus (default = 2 times, i.e. DDR)
-gpgpu_dram_timing_opt nbk=16:CCD=2:RRD=6:RCD=12:RAS=28:RP=12:RC=40: CL=12:WL=4:CDLR=5:WR=12:nbkgrp=1:CCDL=0:RTPL=0 # DRAM timing parameters = {nbk:tCCD:tRRD:tRCD:tRAS:tRP:tRC:CL:WL:tCDLR:tWR:nbkgrp:tCCDL:tRTPL}
-rop_latency                          120 # ROP queue latency (default 85)
-dram_latency                         100 # DRAM latency (default 30)
-gpgpu_mem_addr_mapping dramid@8;00000000.00000000.00000000.00000000.0000RRRR.RRRRRRRR.RBBBCCCC.BCCSSSSS # mapping memory address to dram model {dramid@<start bit>;<memory address map>}
-gpgpu_mem_addr_test                    0 # run sweep test to check address mapping for aliased address
-gpgpu_mem_address_mask                    1 # 0 = old addressing mask, 1 = new addressing mask, 2 = new add. mask + flipped bank sel and chip sel bits
-gpuwattch_xml_file  gpuwattch_geforcegtx1080ti.xml # GPUWattch XML file
-power_simulation_enabled                    1 # Turn on power simulator (1=On, 0=Off)
-power_per_cycle_dump                    0 # Dump detailed power output each cycle
-power_trace_enabled                    0 # produce a file for the power trace (1=On, 0=Off)
-power_trace_zlevel                     6 # Compression level of the power trace output log (0=no comp, 9=highest)
-steady_power_levels_enabled                    0 # produce a file for the steady power levels (1=On, 0=Off)
-steady_state_definition                  8:4 # allowed deviation:number of samples
-gpgpu_max_cycle                        0 # terminates gpu simulation early (0 = no limit)
-gpgpu_max_insn                         0 # terminates gpu simulation early (0 = no limit)
-gpgpu_max_cta                          0 # terminates gpu simulation early (0 = no limit)
-gpgpu_runtime_stat                   500 # display runtime statistics such as dram utilization {<freq>:<flag>}
-liveness_message_freq                    1 # Minimum number of seconds between simulation liveness messages (0 = always print)
-gpgpu_flush_l1_cache                    0 # Flush L1 cache at the end of each kernel call
-gpgpu_flush_l2_cache                    0 # Flush L2 cache at the end of each kernel call
-gpgpu_deadlock_detect                    0 # Stop the simulation at deadlock (1=on (default), 0=off)
-gpgpu_ptx_instruction_classification                    0 # if enabled will classify ptx instruction types per kernel (Max 255 kernels now)
-gpgpu_ptx_sim_mode                     0 # Select between Performance (default) or Functional simulation (1)
-gpgpu_clock_domains 1481.0:2962.0:1481.0:2750.0 # Clock Domain Frequencies in MhZ {<Core Clock>:<ICNT Clock>:<L2 Clock>:<DRAM Clock>}
-gpgpu_max_concurrent_kernel                    8 # maximum kernels that can run concurrently on GPU
-gpgpu_cflog_interval                    0 # Interval between each snapshot in control flow logger
-visualizer_enabled                     0 # Turn on visualizer output (1=On, 0=Off)
-visualizer_outputfile                 NULL # Specifies the output log file for visualizer
-visualizer_zlevel                      6 # Compression level of the visualizer output log (0=no comp, 9=highest)
-trace_enabled                          0 # Turn on traces
-trace_components                    none # comma seperated list of traces to enable. Complete list found in trace_streams.tup. Default none
-trace_sampling_core                    0 # The core which is printed using CORE_DPRINTF. Default 0
-trace_sampling_memory_partition                   -1 # The memory partition which is printed using MEMPART_DPRINTF. Default -1 (i.e. all)
-gddr_size                            1GB # Size of GDDR in MB/GB.(GLOBAL_HEAP_START, GLOBAL_HEAP_START + gddr_size) would be used for unmanged memory, (GLOBAL_HEAP_START + gddr_size, GLOBAL_HEAP_START + gddr_size*2) would be used for managed memory. 
-page_table_walk_latency                  100 # Average page table walk latency (in core cycle).
-eviction_policy                        0 # Select page eviction policy
-invalidate_clean                       0 # Should directly invalidate clean pages
-reserve_accessed_page_percent                    0 # Percentage of accessed pages reserved from eviction in hope that they will be accessed in next iteration.
-percentage_of_free_page_buffer                    0 # Percentage of free page buffer to trigger the page eviction.
-page_size                            4KB # GDDR page size, only 4KB/2MB avaliable.
-pcie_bandwidth                  16.0GB/s # PCI-e bandwidth per direction, in GB/s.
-enable_dma                             0 # Enable direct access to CPU memory
-multiply_dma_penalty                    2 # Oversubscription Multiplicative Penalty Factor for Adaptive DMA
-migrate_threshold                      8 # Access counter threshold for migrating the page from cpu to gpu
-sim_prof_enable                        1 # Enable gpgpu-sim profiler
-hardware_prefetch                      1 # Select gpgpu-sim hardware prefetcher
-hwprefetch_oversub                     1 # Select gpgpu-sim hardware prefetcher under over-subscription
-page_fault_latency                 66645 # Average fault latency (in core cycle).
-enable_accurate_simulation                    0 # Enable page fault functional simulation.
-enable_ptx_file_line_stats                    1 # Turn on PTX source line statistic profiling. (1 = On)
-ptx_line_stats_filename gpgpu_inst_stats.txt # Output file for PTX source line statistics.
-gpgpu_kernel_launch_latency               222150 # Kernel launch latency in cycles. Default: 0
-gpgpu_cdp_enabled                      0 # Turn on CDP
-save_embedded_ptx                      0 # saves ptx files embedded in binary as <n>.ptx
-keep                                   0 # keep intermediate files created by GPGPU-Sim when interfacing with external programs
-gpgpu_ptx_save_converted_ptxplus                    0 # Saved converted ptxplus to a file
-ptx_opcode_latency_int         4,13,4,5,145 # Opcode latencies for integers <ADD,MAX,MUL,MAD,DIV>Default 1,1,19,25,145
-ptx_opcode_latency_fp          4,13,4,5,39 # Opcode latencies for single precision floating points <ADD,MAX,MUL,MAD,DIV>Default 1,1,1,1,30
-ptx_opcode_latency_dp         8,19,8,8,330 # Opcode latencies for double precision floating points <ADD,MAX,MUL,MAD,DIV>Default 8,8,8,8,335
-ptx_opcode_initiation_int            1,2,2,2,8 # Opcode initiation intervals for integers <ADD,MAX,MUL,MAD,DIV>Default 1,1,4,4,32
-ptx_opcode_initiation_fp            1,2,1,1,4 # Opcode initiation intervals for single precision floating points <ADD,MAX,MUL,MAD,DIV>Default 1,1,1,1,5
-ptx_opcode_initiation_dp          1,2,1,1,130 # Opcode initiation intervals for double precision floating points <ADD,MAX,MUL,MAD,DIV>Default 8,8,8,8,130
-cdp_latency         7200,8000,100,12000,1600 # CDP API latency <cudaStreamCreateWithFlags, cudaGetParameterBufferV2_init_perWarp, cudaGetParameterBufferV2_perKernel, cudaLaunchDeviceV2_init_perWarp, cudaLaunchDevicV2_perKernel>Default 7200,8000,100,12000,1600
DRAM Timing Options:
nbk                                    16 # number of banks
CCD                                     2 # column to column delay
RRD                                     6 # minimal delay between activation of rows in different banks
RCD                                    12 # row to column delay
RAS                                    28 # time needed to activate row
RP                                     12 # time needed to precharge (deactivate) row
RC                                     40 # row cycle time
CDLR                                    5 # switching from write to read (changes tWTR)
WR                                     12 # last data-in to row precharge
CL                                     12 # CAS latency
WL                                      4 # Write latency
nbkgrp                                  1 # number of bank groups
CCDL                                    0 # column to column delay between accesses to different bank groups
RTPL                                    0 # read to precharge delay between accesses to different bank groups
Total number of memory sub partition = 22
addr_dec_mask[CHIP]  = 0000000000000000 	high:64 low:0
addr_dec_mask[BK]    = 0000000000007080 	high:15 low:7
addr_dec_mask[ROW]   = 000000000fff8000 	high:28 low:15
addr_dec_mask[COL]   = 0000000000000f7f 	high:12 low:0
addr_dec_mask[BURST] = 000000000000001f 	high:5 low:0
sub_partition_id_mask = 0000000000000080
GPGPU-Sim uArch: clock freqs: 1481000000.000000:2962000000.000000:1481000000.000000:2750000000.000000
GPGPU-Sim uArch: clock periods: 0.00000000067521944632:0.00000000033760972316:0.00000000067521944632:0.00000000036363636364
*** Initializing Memory Statistics ***
GPGPU-Sim uArch: interconnect node map (shaderID+MemID to icntID)
GPGPU-Sim uArch: Memory nodes ID start from index: 28
GPGPU-Sim uArch:    0   1   2   3   4   5   6
GPGPU-Sim uArch:    7   8   9  10  11  12  13
GPGPU-Sim uArch:   14  15  16  17  18  19  20
GPGPU-Sim uArch:   21  22  23  24  25  26  27
GPGPU-Sim uArch:   28  29  30  31  32  33  34
GPGPU-Sim uArch:   35  36  37  38  39  40  41
GPGPU-Sim uArch:   42  43  44  45  46  47  48
GPGPU-Sim uArch:   49
GPGPU-Sim uArch: interconnect node reverse map (icntID to shaderID+MemID)
GPGPU-Sim uArch: Memory nodes start from ID: 28
GPGPU-Sim uArch:    0   1   2   3   4   5   6
GPGPU-Sim uArch:    7   8   9  10  11  12  13
GPGPU-Sim uArch:   14  15  16  17  18  19  20
GPGPU-Sim uArch:   21  22  23  24  25  26  27
GPGPU-Sim uArch:   28  29  30  31  32  33  34
GPGPU-Sim uArch:   35  36  37  38  39  40  41
GPGPU-Sim uArch:   42  43  44  45  46  47  48
GPGPU-Sim uArch:   49
c755b4e9e6a1118e2d736bdbb88f76f4  /root/gpgpu-sim_UVMSmart/benchmarks/Managed/hotspot/hotspot
GPGPU-Sim uArch: performance model initialization complete.
GPGPU-Sim PTX: __cudaRegisterFatBinary, fat_cubin_handle = 1, filename=default
self exe links to: /root/gpgpu-sim_UVMSmart/benchmarks/Managed/hotspot/hotspot
Running md5sum using "md5sum /root/gpgpu-sim_UVMSmart/benchmarks/Managed/hotspot/hotspot "
Parsing file _cuobjdump_complete_output_MQanL4
######### cuobjdump parser ########
## Adding new section ELF
Adding arch: sm_20
Adding identifier: default
## Adding new section ELF
Adding arch: sm_20
Adding identifier: default
## Adding new section PTX
Adding ptx filename: _cuobjdump_1.ptx
Adding arch: sm_20
Adding identifier: default
Done parsing!!!
GPGPU-Sim PTX: __cudaRegisterFunction _Z14calculate_tempiPfS_S_iiiiffffff : hostFun 0x0x401ae2, fat_cubin_handle = 1
GPGPU-Sim PTX: allocating shared region for "_Z14calculate_tempiPfS_S_iiiiffffff$__cuda_local_var_16165_39_non_const_temp_on_cuda" from 0x0 to 0x400 (shared memory space)
GPGPU-Sim PTX: allocating shared region for "_Z14calculate_tempiPfS_S_iiiiffffff$__cuda_local_var_16166_39_non_const_power_on_cuda" from 0x400 to 0x800 (shared memory space)
GPGPU-Sim PTX: allocating shared region for "_Z14calculate_tempiPfS_S_iiiiffffff$__cuda_local_var_16167_39_non_const_temp_t" from 0x800 to 0xc00 (shared memory space)
GPGPU-Sim PTX: instruction assembly for function '_Z14calculate_tempiPfS_S_iiiiffffff'...   done.
GPGPU-Sim PTX: finding reconvergence points for '_Z14calculate_tempiPfS_S_iiiiffffff'...
GPGPU-Sim PTX: Finding dominators for '_Z14calculate_tempiPfS_S_iiiiffffff'...
GPGPU-Sim PTX: Finding immediate dominators for '_Z14calculate_tempiPfS_S_iiiiffffff'...
GPGPU-Sim PTX: Finding postdominators for '_Z14calculate_tempiPfS_S_iiiiffffff'...
GPGPU-Sim PTX: Finding immediate postdominators for '_Z14calculate_tempiPfS_S_iiiiffffff'...
GPGPU-Sim PTX: pre-decoding instructions for '_Z14calculate_tempiPfS_S_iiiiffffff'...
GPGPU-Sim PTX: reconvergence points for _Z14calculate_tempiPfS_S_iiiiffffff...
GPGPU-Sim PTX:  1 (potential) branch divergence @  PC=0x118 (_1.ptx:82) @!%p7 bra BB0_2;
GPGPU-Sim PTX:    immediate post dominator      @  PC=0x1b8 (_1.ptx:106) bar.sync 0;
GPGPU-Sim PTX:  2 (potential) branch divergence @  PC=0x120 (_1.ptx:83) bra.uni BB0_1;
GPGPU-Sim PTX:    immediate post dominator      @  PC=0x128 (_1.ptx:86) mad.lo.s32 %r27, %r1, %r10, %r2;
GPGPU-Sim PTX:  3 (potential) branch divergence @  PC=0x1c8 (_1.ptx:108) @%p8 bra BB0_11;
GPGPU-Sim PTX:    immediate post dominator      @  PC=0x5b0 (_1.ptx:247) and.b16 %rs7, %rs8, 255;
GPGPU-Sim PTX:  4 (potential) branch divergence @  PC=0x338 (_1.ptx:157) @!%p15 bra BB0_7;
GPGPU-Sim PTX:    immediate post dominator      @  PC=0x538 (_1.ptx:226) bar.sync 0;
GPGPU-Sim PTX:  5 (potential) branch divergence @  PC=0x340 (_1.ptx:158) bra.uni BB0_5;
GPGPU-Sim PTX:    immediate post dominator      @  PC=0x348 (_1.ptx:161) setp.gt.s32%p16, %r23, %r6;
GPGPU-Sim PTX:  6 (potential) branch divergence @  PC=0x3d0 (_1.ptx:178) @%p28 bra BB0_7;
GPGPU-Sim PTX:    immediate post dominator      @  PC=0x538 (_1.ptx:226) bar.sync 0;
GPGPU-Sim PTX:  7 (potential) branch divergence @  PC=0x548 (_1.ptx:228) @%p31 bra BB0_11;
GPGPU-Sim PTX:    immediate post dominator      @  PC=0x5b0 (_1.ptx:247) and.b16 %rs7, %rs8, 255;
GPGPU-Sim PTX:  8 (potential) branch divergence @  PC=0x558 (_1.ptx:231) @%p32 bra BB0_10;
GPGPU-Sim PTX:    immediate post dominator      @  PC=0x590 (_1.ptx:241) bar.sync 0;
GPGPU-Sim PTX:  9 (potential) branch divergence @  PC=0x5a8 (_1.ptx:244) @%p33 bra BB0_4;
GPGPU-Sim PTX:    immediate post dominator      @  PC=0x5b0 (_1.ptx:247) and.b16 %rs7, %rs8, 255;
GPGPU-Sim PTX: 10 (potential) branch divergence @  PC=0x5c0 (_1.ptx:249) @%p34 bra BB0_13;
GPGPU-Sim PTX:    immediate post dominator      @  PC=0x620 (_1.ptx:264) ret;
GPGPU-Sim PTX: ... end of reconvergence points for _Z14calculate_tempiPfS_S_iiiiffffff
GPGPU-Sim PTX: ... done pre-decoding instructions for '_Z14calculate_tempiPfS_S_iiiiffffff'.
GPGPU-Sim PTX: finished parsing EMBEDDED .ptx file _1.ptx
Adding _cuobjdump_1.ptx with cubin handle 1
GPGPU-Sim PTX: extracting embedded .ptx to temporary file "_ptx_pmeTP4"
Running: cat _ptx_pmeTP4 | sed 's/.version 1.5/.version 1.4/' | sed 's/, texmode_independent//' | sed 's/\(\.extern \.const\[1\] .b8 \w\+\)\[\]/\1\[1\]/' | sed 's/const\[.\]/const\[0\]/g' > _ptx2_UZmqU4
GPGPU-Sim PTX: generating ptxinfo using "$CUDA_INSTALL_PATH/bin/ptxas --gpu-name=sm_20 -v _ptx2_UZmqU4 --output-file  /dev/null 2> _ptx_pmeTP4info"
GPGPU-Sim PTX: Kernel '_Z14calculate_tempiPfS_S_iiiiffffff' : regs=34, lmem=0, smem=3072, cmem=120
GPGPU-Sim PTX: removing ptxinfo using "rm -f _ptx_pmeTP4 _ptx2_UZmqU4 _ptx_pmeTP4info"
GPGPU-Sim PTX: loading globals with explicit initializers... 
GPGPU-Sim PTX: finished loading globals (0 bytes total).
GPGPU-Sim PTX: loading constants with explicit initializers...  done.
WG size of kernel = 16 X 16
pyramidHeight: 2
gridSize: [1024, 1024]
border:[2, 2]
blockGrid:[86, 86]
targetBlock:[12, 12]
Start computing the transient temperature

GPGPU-Sim PTX: cudaLaunch for 0x0x401ae2 (mode=performance simulation) on stream 0
GPGPU-Sim PTX: pushing kernel '_Z14calculate_tempiPfS_S_iiiiffffff' to stream 0, gridDim= (86,86,1) blockDim = (16,16,1) 
GPGPU-Sim uArch: Shader 1 bind to kernel 1 '_Z14calculate_tempiPfS_S_iiiiffffff'
GPGPU-Sim uArch: CTA/core = 7, limited by: regs
GPGPU-Sim uArch: Shader 2 bind to kernel 1 '_Z14calculate_tempiPfS_S_iiiiffffff'
GPGPU-Sim uArch: Shader 3 bind to kernel 1 '_Z14calculate_tempiPfS_S_iiiiffffff'
GPGPU-Sim uArch: Shader 4 bind to kernel 1 '_Z14calculate_tempiPfS_S_iiiiffffff'
GPGPU-Sim uArch: Shader 5 bind to kernel 1 '_Z14calculate_tempiPfS_S_iiiiffffff'
GPGPU-Sim uArch: Shader 6 bind to kernel 1 '_Z14calculate_tempiPfS_S_iiiiffffff'
GPGPU-Sim uArch: Shader 7 bind to kernel 1 '_Z14calculate_tempiPfS_S_iiiiffffff'
GPGPU-Sim uArch: Shader 8 bind to kernel 1 '_Z14calculate_tempiPfS_S_iiiiffffff'
GPGPU-Sim uArch: Shader 9 bind to kernel 1 '_Z14calculate_tempiPfS_S_iiiiffffff'
GPGPU-Sim uArch: Shader 10 bind to kernel 1 '_Z14calculate_tempiPfS_S_iiiiffffff'
GPGPU-Sim uArch: Shader 11 bind to kernel 1 '_Z14calculate_tempiPfS_S_iiiiffffff'
GPGPU-Sim uArch: Shader 12 bind to kernel 1 '_Z14calculate_tempiPfS_S_iiiiffffff'
GPGPU-Sim uArch: Shader 13 bind to kernel 1 '_Z14calculate_tempiPfS_S_iiiiffffff'
GPGPU-Sim uArch: Shader 14 bind to kernel 1 '_Z14calculate_tempiPfS_S_iiiiffffff'
GPGPU-Sim uArch: Shader 15 bind to kernel 1 '_Z14calculate_tempiPfS_S_iiiiffffff'
GPGPU-Sim uArch: Shader 16 bind to kernel 1 '_Z14calculate_tempiPfS_S_iiiiffffff'
GPGPU-Sim uArch: Shader 17 bind to kernel 1 '_Z14calculate_tempiPfS_S_iiiiffffff'
GPGPU-Sim uArch: Shader 18 bind to kernel 1 '_Z14calculate_tempiPfS_S_iiiiffffff'
GPGPU-Sim uArch: Shader 19 bind to kernel 1 '_Z14calculate_tempiPfS_S_iiiiffffff'
GPGPU-Sim uArch: Shader 20 bind to kernel 1 '_Z14calculate_tempiPfS_S_iiiiffffff'
GPGPU-Sim uArch: Shader 21 bind to kernel 1 '_Z14calculate_tempiPfS_S_iiiiffffff'
GPGPU-Sim uArch: Shader 22 bind to kernel 1 '_Z14calculate_tempiPfS_S_iiiiffffff'
GPGPU-Sim uArch: Shader 23 bind to kernel 1 '_Z14calculate_tempiPfS_S_iiiiffffff'
GPGPU-Sim uArch: Shader 24 bind to kernel 1 '_Z14calculate_tempiPfS_S_iiiiffffff'
GPGPU-Sim uArch: Shader 25 bind to kernel 1 '_Z14calculate_tempiPfS_S_iiiiffffff'
GPGPU-Sim uArch: Shader 26 bind to kernel 1 '_Z14calculate_tempiPfS_S_iiiiffffff'
GPGPU-Sim uArch: Shader 27 bind to kernel 1 '_Z14calculate_tempiPfS_S_iiiiffffff'
GPGPU-Sim uArch: Shader 0 bind to kernel 1 '_Z14calculate_tempiPfS_S_iiiiffffff'
GPGPU-Sim uArch: Shader 1 bind to kernel 1 '_Z14calculate_tempiPfS_S_iiiiffffff'
GPGPU-Sim uArch: Shader 2 bind to kernel 1 '_Z14calculate_tempiPfS_S_iiiiffffff'
GPGPU-Sim uArch: Shader 3 bind to kernel 1 '_Z14calculate_tempiPfS_S_iiiiffffff'
GPGPU-Sim uArch: Shader 4 bind to kernel 1 '_Z14calculate_tempiPfS_S_iiiiffffff'
GPGPU-Sim uArch: Shader 7 bind to kernel 1 '_Z14calculate_tempiPfS_S_iiiiffffff'
GPGPU-Sim uArch: Shader 13 bind to kernel 1 '_Z14calculate_tempiPfS_S_iiiiffffff'
GPGPU-Sim uArch: Shader 15 bind to kernel 1 '_Z14calculate_tempiPfS_S_iiiiffffff'
GPGPU-Sim uArch: Shader 17 bind to kernel 1 '_Z14calculate_tempiPfS_S_iiiiffffff'
GPGPU-Sim uArch: Shader 18 bind to kernel 1 '_Z14calculate_tempiPfS_S_iiiiffffff'
GPGPU-Sim uArch: Shader 21 bind to kernel 1 '_Z14calculate_tempiPfS_S_iiiiffffff'
GPGPU-Sim uArch: Shader 24 bind to kernel 1 '_Z14calculate_tempiPfS_S_iiiiffffff'
GPGPU-Sim uArch: Shader 25 bind to kernel 1 '_Z14calculate_tempiPfS_S_iiiiffffff'
GPGPU-Sim uArch: Shader 27 bind to kernel 1 '_Z14calculate_tempiPfS_S_iiiiffffff'
GPGPU-Sim uArch: Shader 0 bind to kernel 1 '_Z14calculate_tempiPfS_S_iiiiffffff'
GPGPU-Sim uArch: Shader 14 bind to kernel 1 '_Z14calculate_tempiPfS_S_iiiiffffff'
GPGPU-Sim uArch: Shader 15 bind to kernel 1 '_Z14calculate_tempiPfS_S_iiiiffffff'
GPGPU-Sim uArch: Shader 18 bind to kernel 1 '_Z14calculate_tempiPfS_S_iiiiffffff'
GPGPU-Sim uArch: Shader 22 bind to kernel 1 '_Z14calculate_tempiPfS_S_iiiiffffff'
GPGPU-Sim uArch: Shader 23 bind to kernel 1 '_Z14calculate_tempiPfS_S_iiiiffffff'
GPGPU-Sim uArch: Shader 27 bind to kernel 1 '_Z14calculate_tempiPfS_S_iiiiffffff'
GPGPU-Sim uArch: Shader 4 bind to kernel 1 '_Z14calculate_tempiPfS_S_iiiiffffff'
GPGPU-Sim uArch: Shader 8 bind to kernel 1 '_Z14calculate_tempiPfS_S_iiiiffffff'
GPGPU-Sim uArch: Shader 11 bind to kernel 1 '_Z14calculate_tempiPfS_S_iiiiffffff'
GPGPU-Sim uArch: Shader 12 bind to kernel 1 '_Z14calculate_tempiPfS_S_iiiiffffff'
GPGPU-Sim uArch: Shader 13 bind to kernel 1 '_Z14calculate_tempiPfS_S_iiiiffffff'
GPGPU-Sim uArch: Shader 15 bind to kernel 1 '_Z14calculate_tempiPfS_S_iiiiffffff'
GPGPU-Sim uArch: Shader 20 bind to kernel 1 '_Z14calculate_tempiPfS_S_iiiiffffff'
GPGPU-Sim uArch: Shader 24 bind to kernel 1 '_Z14calculate_tempiPfS_S_iiiiffffff'
GPGPU-Sim uArch: Shader 4 bind to kernel 1 '_Z14calculate_tempiPfS_S_iiiiffffff'
GPGPU-Sim uArch: Shader 6 bind to kernel 1 '_Z14calculate_tempiPfS_S_iiiiffffff'
GPGPU-Sim uArch: Shader 12 bind to kernel 1 '_Z14calculate_tempiPfS_S_iiiiffffff'
GPGPU-Sim uArch: Shader 13 bind to kernel 1 '_Z14calculate_tempiPfS_S_iiiiffffff'
GPGPU-Sim uArch: Shader 22 bind to kernel 1 '_Z14calculate_tempiPfS_S_iiiiffffff'
GPGPU-Sim uArch: Shader 24 bind to kernel 1 '_Z14calculate_tempiPfS_S_iiiiffffff'
GPGPU-Sim uArch: Shader 9 bind to kernel 1 '_Z14calculate_tempiPfS_S_iiiiffffff'
GPGPU-Sim uArch: Shader 10 bind to kernel 1 '_Z14calculate_tempiPfS_S_iiiiffffff'
GPGPU-Sim uArch: Shader 11 bind to kernel 1 '_Z14calculate_tempiPfS_S_iiiiffffff'
GPGPU-Sim uArch: Shader 12 bind to kernel 1 '_Z14calculate_tempiPfS_S_iiiiffffff'
GPGPU-Sim uArch: Shader 13 bind to kernel 1 '_Z14calculate_tempiPfS_S_iiiiffffff'
GPGPU-Sim uArch: Shader 15 bind to kernel 1 '_Z14calculate_tempiPfS_S_iiiiffffff'
GPGPU-Sim uArch: Shader 16 bind to kernel 1 '_Z14calculate_tempiPfS_S_iiiiffffff'
GPGPU-Sim uArch: Shader 18 bind to kernel 1 '_Z14calculate_tempiPfS_S_iiiiffffff'
GPGPU-Sim uArch: Shader 19 bind to kernel 1 '_Z14calculate_tempiPfS_S_iiiiffffff'
GPGPU-Sim uArch: Shader 20 bind to kernel 1 '_Z14calculate_tempiPfS_S_iiiiffffff'
GPGPU-Sim uArch: Shader 22 bind to kernel 1 '_Z14calculate_tempiPfS_S_iiiiffffff'
GPGPU-Sim uArch: Shader 24 bind to kernel 1 '_Z14calculate_tempiPfS_S_iiiiffffff'
GPGPU-Sim uArch: Shader 26 bind to kernel 1 '_Z14calculate_tempiPfS_S_iiiiffffff'
GPGPU-Sim uArch: Shader 27 bind to kernel 1 '_Z14calculate_tempiPfS_S_iiiiffffff'
GPGPU-Sim uArch: Shader 0 bind to kernel 1 '_Z14calculate_tempiPfS_S_iiiiffffff'
GPGPU-Sim uArch: Shader 1 bind to kernel 1 '_Z14calculate_tempiPfS_S_iiiiffffff'
GPGPU-Sim uArch: Shader 4 bind to kernel 1 '_Z14calculate_tempiPfS_S_iiiiffffff'
GPGPU-Sim uArch: Shader 6 bind to kernel 1 '_Z14calculate_tempiPfS_S_iiiiffffff'
GPGPU-Sim uArch: Shader 7 bind to kernel 1 '_Z14calculate_tempiPfS_S_iiiiffffff'
GPGPU-Sim uArch: Shader 9 bind to kernel 1 '_Z14calculate_tempiPfS_S_iiiiffffff'
GPGPU-Sim uArch: Shader 14 bind to kernel 1 '_Z14calculate_tempiPfS_S_iiiiffffff'
GPGPU-Sim uArch: Shader 17 bind to kernel 1 '_Z14calculate_tempiPfS_S_iiiiffffff'
GPGPU-Sim uArch: Shader 21 bind to kernel 1 '_Z14calculate_tempiPfS_S_iiiiffffff'
GPGPU-Sim uArch: Shader 23 bind to kernel 1 '_Z14calculate_tempiPfS_S_iiiiffffff'
GPGPU-Sim uArch: Shader 25 bind to kernel 1 '_Z14calculate_tempiPfS_S_iiiiffffff'
GPGPU-Sim uArch: Shader 3 bind to kernel 1 '_Z14calculate_tempiPfS_S_iiiiffffff'
GPGPU-Sim uArch: Shader 5 bind to kernel 1 '_Z14calculate_tempiPfS_S_iiiiffffff'
GPGPU-Sim uArch: Shader 7 bind to kernel 1 '_Z14calculate_tempiPfS_S_iiiiffffff'
GPGPU-Sim uArch: Shader 22 bind to kernel 1 '_Z14calculate_tempiPfS_S_iiiiffffff'
GPGPU-Sim uArch: Shader 27 bind to kernel 1 '_Z14calculate_tempiPfS_S_iiiiffffff'
Destroy streams for kernel 1: size 0
kernel_name = _Z14calculate_tempiPfS_S_iiiiffffff 
kernel_launch_uid = 1 
gpu_sim_cycle = 1797336
gpu_sim_insn = 415466464
gpu_ipc =     231.1568
gpu_tot_sim_cycle = 2019486
gpu_tot_sim_insn = 415466464
gpu_tot_ipc =     205.7288
gpu_tot_issued_cta = 7396
max_total_param_size = 0
gpu_stall_dramfull = 50557
gpu_stall_icnt2sh    = 607560
partiton_reqs_in_parallel = 39490835
partiton_reqs_in_parallel_total    = 0
partiton_level_parallism =      21.9719
partiton_level_parallism_total  =      19.5549
partiton_reqs_in_parallel_util = 39490835
partiton_reqs_in_parallel_util_total    = 0
gpu_sim_cycle_parition_util = 1796712
gpu_tot_sim_cycle_parition_util    = 0
partiton_level_parallism_util =      21.9795
partiton_level_parallism_util_total  =      21.9795
partiton_replys_in_parallel = 456444
partiton_replys_in_parallel_total    = 0
L2_BW  =      24.0710 GB/Sec
L2_BW_total  =      21.4231 GB/Sec
gpu_total_sim_rate=172751

========= Core cache stats =========
L1I_cache:
	L1I_total_cache_accesses = 7740000
	L1I_total_cache_misses = 8688
	L1I_total_cache_miss_rate = 0.0011
	L1I_total_cache_pending_hits = 0
	L1I_total_cache_reservation_fails = 6846
L1D_cache:
	L1D_cache_core[0]: Access = 0, Miss = 0, Miss_rate = -nan, Pending_hits = 0, Reservation_fails = 0
	L1D_cache_core[1]: Access = 0, Miss = 0, Miss_rate = -nan, Pending_hits = 0, Reservation_fails = 0
	L1D_cache_core[2]: Access = 0, Miss = 0, Miss_rate = -nan, Pending_hits = 0, Reservation_fails = 0
	L1D_cache_core[3]: Access = 0, Miss = 0, Miss_rate = -nan, Pending_hits = 0, Reservation_fails = 0
	L1D_cache_core[4]: Access = 0, Miss = 0, Miss_rate = -nan, Pending_hits = 0, Reservation_fails = 0
	L1D_cache_core[5]: Access = 0, Miss = 0, Miss_rate = -nan, Pending_hits = 0, Reservation_fails = 0
	L1D_cache_core[6]: Access = 0, Miss = 0, Miss_rate = -nan, Pending_hits = 0, Reservation_fails = 0
	L1D_cache_core[7]: Access = 0, Miss = 0, Miss_rate = -nan, Pending_hits = 0, Reservation_fails = 0
	L1D_cache_core[8]: Access = 0, Miss = 0, Miss_rate = -nan, Pending_hits = 0, Reservation_fails = 0
	L1D_cache_core[9]: Access = 0, Miss = 0, Miss_rate = -nan, Pending_hits = 0, Reservation_fails = 0
	L1D_cache_core[10]: Access = 0, Miss = 0, Miss_rate = -nan, Pending_hits = 0, Reservation_fails = 0
	L1D_cache_core[11]: Access = 0, Miss = 0, Miss_rate = -nan, Pending_hits = 0, Reservation_fails = 0
	L1D_cache_core[12]: Access = 0, Miss = 0, Miss_rate = -nan, Pending_hits = 0, Reservation_fails = 0
	L1D_cache_core[13]: Access = 0, Miss = 0, Miss_rate = -nan, Pending_hits = 0, Reservation_fails = 0
	L1D_cache_core[14]: Access = 0, Miss = 0, Miss_rate = -nan, Pending_hits = 0, Reservation_fails = 0
	L1D_cache_core[15]: Access = 0, Miss = 0, Miss_rate = -nan, Pending_hits = 0, Reservation_fails = 0
	L1D_cache_core[16]: Access = 0, Miss = 0, Miss_rate = -nan, Pending_hits = 0, Reservation_fails = 0
	L1D_cache_core[17]: Access = 0, Miss = 0, Miss_rate = -nan, Pending_hits = 0, Reservation_fails = 0
	L1D_cache_core[18]: Access = 0, Miss = 0, Miss_rate = -nan, Pending_hits = 0, Reservation_fails = 0
	L1D_cache_core[19]: Access = 0, Miss = 0, Miss_rate = -nan, Pending_hits = 0, Reservation_fails = 0
	L1D_cache_core[20]: Access = 0, Miss = 0, Miss_rate = -nan, Pending_hits = 0, Reservation_fails = 0
	L1D_cache_core[21]: Access = 0, Miss = 0, Miss_rate = -nan, Pending_hits = 0, Reservation_fails = 0
	L1D_cache_core[22]: Access = 0, Miss = 0, Miss_rate = -nan, Pending_hits = 0, Reservation_fails = 0
	L1D_cache_core[23]: Access = 0, Miss = 0, Miss_rate = -nan, Pending_hits = 0, Reservation_fails = 0
	L1D_cache_core[24]: Access = 0, Miss = 0, Miss_rate = -nan, Pending_hits = 0, Reservation_fails = 0
	L1D_cache_core[25]: Access = 0, Miss = 0, Miss_rate = -nan, Pending_hits = 0, Reservation_fails = 0
	L1D_cache_core[26]: Access = 0, Miss = 0, Miss_rate = -nan, Pending_hits = 0, Reservation_fails = 0
	L1D_cache_core[27]: Access = 0, Miss = 0, Miss_rate = -nan, Pending_hits = 0, Reservation_fails = 0
	L1D_total_cache_accesses = 0
	L1D_total_cache_misses = 0
	L1D_total_cache_pending_hits = 0
	L1D_total_cache_reservation_fails = 0
	L1D_cache_data_port_util = 0.000
	L1D_cache_fill_port_util = 0.000
L1C_cache:
	L1C_total_cache_accesses = 769184
	L1C_total_cache_misses = 2195
	L1C_total_cache_miss_rate = 0.0029
	L1C_total_cache_pending_hits = 0
	L1C_total_cache_reservation_fails = 4886
L1T_cache:
	L1T_total_cache_accesses = 0
	L1T_total_cache_misses = 0
	L1T_total_cache_pending_hits = 0
	L1T_total_cache_reservation_fails = 0

Total_core_cache_stats:
	Total_core_cache_stats_breakdown[GLOBAL_ACC_R][HIT] = 0
	Total_core_cache_stats_breakdown[GLOBAL_ACC_R][HIT_RESERVED] = 0
	Total_core_cache_stats_breakdown[GLOBAL_ACC_R][MISS] = 0
	Total_core_cache_stats_breakdown[GLOBAL_ACC_R][RESERVATION_FAIL] = 0
	Total_core_cache_stats_breakdown[LOCAL_ACC_R][HIT] = 0
	Total_core_cache_stats_breakdown[LOCAL_ACC_R][HIT_RESERVED] = 0
	Total_core_cache_stats_breakdown[LOCAL_ACC_R][MISS] = 0
	Total_core_cache_stats_breakdown[LOCAL_ACC_R][RESERVATION_FAIL] = 0
	Total_core_cache_stats_breakdown[CONST_ACC_R][HIT] = 766989
	Total_core_cache_stats_breakdown[CONST_ACC_R][HIT_RESERVED] = 0
	Total_core_cache_stats_breakdown[CONST_ACC_R][MISS] = 2195
	Total_core_cache_stats_breakdown[CONST_ACC_R][RESERVATION_FAIL] = 4886
	Total_core_cache_stats_breakdown[TEXTURE_ACC_R][HIT] = 0
	Total_core_cache_stats_breakdown[TEXTURE_ACC_R][HIT_RESERVED] = 0
	Total_core_cache_stats_breakdown[TEXTURE_ACC_R][MISS] = 0
	Total_core_cache_stats_breakdown[TEXTURE_ACC_R][RESERVATION_FAIL] = 0
	Total_core_cache_stats_breakdown[GLOBAL_ACC_W][HIT] = 0
	Total_core_cache_stats_breakdown[GLOBAL_ACC_W][HIT_RESERVED] = 0
	Total_core_cache_stats_breakdown[GLOBAL_ACC_W][MISS] = 0
	Total_core_cache_stats_breakdown[GLOBAL_ACC_W][RESERVATION_FAIL] = 0
	Total_core_cache_stats_breakdown[LOCAL_ACC_W][HIT] = 0
	Total_core_cache_stats_breakdown[LOCAL_ACC_W][HIT_RESERVED] = 0
	Total_core_cache_stats_breakdown[LOCAL_ACC_W][MISS] = 0
	Total_core_cache_stats_breakdown[LOCAL_ACC_W][RESERVATION_FAIL] = 0
	Total_core_cache_stats_breakdown[L1_WRBK_ACC][HIT] = 0
	Total_core_cache_stats_breakdown[L1_WRBK_ACC][HIT_RESERVED] = 0
	Total_core_cache_stats_breakdown[L1_WRBK_ACC][MISS] = 0
	Total_core_cache_stats_breakdown[L1_WRBK_ACC][RESERVATION_FAIL] = 0
	Total_core_cache_stats_breakdown[L2_WRBK_ACC][HIT] = 0
	Total_core_cache_stats_breakdown[L2_WRBK_ACC][HIT_RESERVED] = 0
	Total_core_cache_stats_breakdown[L2_WRBK_ACC][MISS] = 0
	Total_core_cache_stats_breakdown[L2_WRBK_ACC][RESERVATION_FAIL] = 0
	Total_core_cache_stats_breakdown[INST_ACC_R][HIT] = 7731312
	Total_core_cache_stats_breakdown[INST_ACC_R][HIT_RESERVED] = 0
	Total_core_cache_stats_breakdown[INST_ACC_R][MISS] = 8688
	Total_core_cache_stats_breakdown[INST_ACC_R][RESERVATION_FAIL] = 6846
	Total_core_cache_stats_breakdown[L1_WR_ALLOC_R][HIT] = 0
	Total_core_cache_stats_breakdown[L1_WR_ALLOC_R][HIT_RESERVED] = 0
	Total_core_cache_stats_breakdown[L1_WR_ALLOC_R][MISS] = 0
	Total_core_cache_stats_breakdown[L1_WR_ALLOC_R][RESERVATION_FAIL] = 0
	Total_core_cache_stats_breakdown[L2_WR_ALLOC_R][HIT] = 0
	Total_core_cache_stats_breakdown[L2_WR_ALLOC_R][HIT_RESERVED] = 0
	Total_core_cache_stats_breakdown[L2_WR_ALLOC_R][MISS] = 0
	Total_core_cache_stats_breakdown[L2_WR_ALLOC_R][RESERVATION_FAIL] = 0
	Total_core_cache_stats_breakdown[CONST_ACC_R][TOTAL_ACCESS] = 769184
	Total_core_cache_stats_breakdown[INST_ACC_R][TOTAL_ACCESS] = 7740000
Shader 0 warp_id issue ditsribution:
warp_id:
0, 1, 2, 3, 4, 5, 6, 7, 8, 9, 10, 11, 12, 13, 14, 15, 16, 17, 18, 19, 20, 21, 22, 23, 24, 25, 26, 27, 28, 29, 30, 31, 32, 33, 34, 35, 36, 37, 38, 39, 40, 41, 42, 43, 44, 45, 46, 47, 48, 49, 50, 51, 52, 53, 54, 55, 
distro:
9983, 12589, 12611, 12426, 12467, 12418, 12458, 10010, 9729, 12268, 12297, 12263, 12294, 12253, 12287, 9832, 9486, 11964, 11996, 11955, 11991, 11955, 11988, 9584, 9306, 11644, 11660, 11489, 11511, 11484, 11511, 9256, 9547, 11944, 11967, 11786, 11828, 11784, 11825, 9485, 9310, 11632, 11663, 11482, 11521, 11485, 11518, 9251, 9304, 11640, 11663, 11485, 11511, 11468, 11508, 9246, 
gpgpu_n_tot_thrd_icount = 485326208
gpgpu_n_tot_w_icount = 15166444
gpgpu_n_stall_shd_mem = 391832
gpgpu_n_mem_read_local = 0
gpgpu_n_mem_write_local = 0
gpgpu_n_mem_read_global = 346456
gpgpu_n_mem_write_global = 109568
gpgpu_n_mem_texture = 0
gpgpu_n_mem_const = 56
gpgpu_n_load_insn  = 3720992
gpgpu_n_store_insn = 1048576
gpgpu_n_shmem_insn = 24940324
gpgpu_n_tex_insn = 0
gpgpu_n_const_mem_insn = 0
gpgpu_n_param_mem_insn = 24613888
gpgpu_n_shmem_bkconflict = 0
gpgpu_n_cache_bkconflict = 0
gpgpu_n_intrawarp_mshr_merge = 0
gpgpu_n_cmem_portconflict = 4886
gpgpu_stall_shd_mem[c_mem][bk_conf] = 4886
gpgpu_stall_shd_mem[c_mem][mshr_rc] = 0
gpgpu_stall_shd_mem[c_mem][icnt_rc] = 0
gpgpu_stall_shd_mem[c_mem][data_port_stall] = 0
gpgpu_stall_shd_mem[t_mem][mshr_rc] = 0
gpgpu_stall_shd_mem[t_mem][icnt_rc] = 0
gpgpu_stall_shd_mem[t_mem][data_port_stall] = 0
gpgpu_stall_shd_mem[s_mem][bk_conf] = 0
gpgpu_stall_shd_mem[gl_mem][bk_conf] = 0
gpgpu_stall_shd_mem[gl_mem][coal_stall] = 320159
gpgpu_stall_shd_mem[gl_mem][data_port_stall] = 0
gpgpu_stall_shd_mem[g_mem_ld][mshr_rc] = 0
gpgpu_stall_shd_mem[g_mem_ld][icnt_rc] = 66787
gpgpu_stall_shd_mem[g_mem_ld][wb_icnt_rc] = 0
gpgpu_stall_shd_mem[g_mem_ld][wb_rsrv_fail] = 0
gpgpu_stall_shd_mem[g_mem_st][mshr_rc] = 0
gpgpu_stall_shd_mem[g_mem_st][icnt_rc] = 0
gpgpu_stall_shd_mem[g_mem_st][wb_icnt_rc] = 0
gpgpu_stall_shd_mem[g_mem_st][wb_rsrv_fail] = 0
gpgpu_stall_shd_mem[l_mem_ld][mshr_rc] = 0
gpgpu_stall_shd_mem[l_mem_ld][icnt_rc] = 0
gpgpu_stall_shd_mem[l_mem_ld][wb_icnt_rc] = 0
gpgpu_stall_shd_mem[l_mem_ld][wb_rsrv_fail] = 0
gpgpu_stall_shd_mem[l_mem_st][mshr_rc] = 0
gpgpu_stall_shd_mem[l_mem_st][icnt_rc] = 0
gpgpu_stall_shd_mem[l_mem_ld][wb_icnt_rc] = 0
gpgpu_stall_shd_mem[l_mem_ld][wb_rsrv_fail] = 0
gpu_reg_bank_conflict_stalls = 0
Warp Occupancy Distribution:
Stall:536207	W0_Idle:42251516	W0_Scoreboard:45114912	W1:0	W2:0	W3:0	W4:0	W5:8500	W6:0	W7:0	W8:28160	W9:0	W10:25600	W11:0	W12:12958	W13:8500	W14:714000	W15:0	W16:0	W17:0	W18:0	W19:0	W20:0	W21:0	W22:0	W23:0	W24:3517792	W25:0	W26:25600	W27:0	W28:3287550	W29:0	W30:0	W31:0	W32:7537784
traffic_breakdown_coretomem[CONST_ACC_R] = 448 {8:56,}
traffic_breakdown_coretomem[GLOBAL_ACC_R] = 2771648 {8:346456,}
traffic_breakdown_coretomem[GLOBAL_ACC_W] = 7856128 {40:44032,72:44032,136:21504,}
traffic_breakdown_coretomem[INST_ACC_R] = 2912 {8:364,}
traffic_breakdown_memtocore[CONST_ACC_R] = 4032 {72:56,}
traffic_breakdown_memtocore[GLOBAL_ACC_R] = 28785856 {40:114576,72:114576,136:117304,}
traffic_breakdown_memtocore[GLOBAL_ACC_W] = 876544 {8:109568,}
traffic_breakdown_memtocore[INST_ACC_R] = 49504 {136:364,}
maxmrqlatency = 607 
maxdqlatency = 0 
maxmflatency = 243881 
averagemflatency = 4937 
max_icnt2mem_latency = 243557 
max_icnt2sh_latency = 2019485 
mrq_lat_table:110511 	5894 	6074 	11869 	12876 	12169 	10263 	9850 	9173 	62 	0 	0 	0 	0 	0 	0 	0 	0 	0 	0 	0 	0 	0 	0 	0 	0 	0 	0 	0 	0 	0 	0 	
dq_lat_table:0 	0 	0 	0 	0 	0 	0 	0 	0 	0 	0 	0 	0 	0 	0 	0 	0 	0 	0 	0 	0 	0 	0 	0 	0 	0 	0 	0 	0 	0 	0 	0 	
mf_lat_table:0 	0 	0 	0 	0 	0 	0 	279496 	132625 	2087 	234 	2284 	1525 	3645 	7765 	18466 	7906 	47 	0 	0 	0 	0 	0 	0 	0 	0 	0 	0 	0 	0 	0 	0 	
icnt2mem_lat_table:0 	0 	232402 	48130 	4364 	1073 	121237 	7171 	195 	1 	423 	2094 	1529 	3754 	8053 	18065 	7906 	47 	0 	0 	0 	0 	0 	0 	
icnt2sh_lat_table:0 	0 	104154 	147063 	87082 	8130 	83 	0 	0 	0 	0 	0 	0 	0 	0 	0 	0 	0 	12840 	14659 	82069 	0 	0 	0 	
mf_lat_pw_table:0 	0 	0 	0 	0 	0 	0 	381 	69 	3 	3 	13 	6 	12 	20 	31 	8 	0 	0 	0 	0 	0 	0 	0 	0 	0 	0 	0 	0 	0 	0 	0 	
maximum concurrent accesses to same row:
dram[0]:        69        70        69        70        66        67        69        70        69        70        69        70        68        66        69        70 
dram[1]:        69        70        69        70        66        63        69        70        69        70        69        70        68        65        69        70 
dram[2]:        69        70        69        70        65        65        69        70        69        70        69        70        66        66        69        70 
dram[3]:        69        70        69        70        67        63        69        70        69        70        69        70        64        66        69        70 
dram[4]:        69        70        69        70        65        66        69        70        69        70        69        70        66        65        69        70 
dram[5]:        69        70        69        70        63        66        69        70        69        70        69        70        67        69        69        70 
dram[6]:        69        70        69        70        68        64        69        70        69        70        69        70        69        66        69        70 
dram[7]:        69        70        69        70        64        65        69        70        69        70        69        70        66        66        69        70 
dram[8]:        69        70        69        70        66        64        69        70        69        70        69        70        65        66        69        70 
dram[9]:        69        70        69        70        67        63        69        70        69        70        69        70        64        66        69        70 
dram[10]:        69        70        69        70        64        67        69        70        69        70        69        70        67        66        69        70 
maximum service time to same row:
dram[0]:    252929    253006    377001    377222    256635    256501    384138    384127    377430    377334    376792    248610    248634    248632    247353    247432 
dram[1]:    253067    253385    377190    377183    375422    375342    384198    384190    377548    377494    248539    248913    248620    248616    247362    247206 
dram[2]:    253029    253380    376991    376964    374609    374630    384106    384120    377556    377419    248618    248343    248628    248627    246791    246435 
dram[3]:    253072    253046    376969    376881    256386    256693    384165    384142    377310    377428    248263    248208    248503    248539    247345    247357 
dram[4]:    253285    253526    376835    377173    256542    256699    384136    383884    377542    377553    248148    248217    248571    248556    247359    247443 
dram[5]:    252929    253005    377086    377081    256636    256483    383983    384237    377452    377398    248157    251804    248634    248633    247365    247423 
dram[6]:    253099    253422    377006    376998    375424    375251    384125    384089    377430    377400    376319    245760    248623    248620    247359    247207 
dram[7]:    251548    253395    376964    376854    375212    375319    384038    384206    377446    377268    245675    245665    248627    248629    246841    246414 
dram[8]:    253061    253088    376813    376749    256532    256576    384208    384118    377329    377370    245566    245576    248502    248526    247335    247401 
dram[9]:    253267    253372    376833    377180    256425    256563    384149    383828    377284    377301    245579    245743    248451    248550    247358    247438 
dram[10]:    258292    257662    377084    377079    256823    256448    383968    384239    377262    377270    245712    249367    248577    248566    247374    247431 
average row accesses per activate:
dram[0]: 13.688312 12.530121 11.225806  9.710280 10.565657 10.656566 11.204082 10.960396  9.926605 10.018349 10.772277  9.732142 11.312500 11.412371 12.136364 10.737373 
dram[1]: 14.397261 13.545455 11.527472 10.957447 11.633333 11.234042 11.648936 11.000000 10.121495 10.592233 11.102041 10.311320 12.032967 12.352273 12.915663 11.988889 
dram[2]: 13.866667 14.246575 11.633333 11.206522 11.722222 11.340425 12.122222 13.787500 10.084906 11.144330 12.043956 11.642105 13.130953 13.059524 12.623529 12.939759 
dram[3]: 16.476191 15.923077 11.622222 11.918605 12.011495 12.125000 13.365853 13.772152 10.504854 12.122222 12.825582 11.827957 13.204820 13.762500 12.402299 12.505882 
dram[4]: 14.452055 13.631579 10.581633  9.932693 11.797752 12.102273 12.682353 13.096386 10.466020 10.920000 11.494737 12.054945 13.835443 12.779070 14.171053 12.136364 
dram[5]: 12.523809 12.011628 10.480000  9.726415  9.933333 10.095238 11.463158 11.161616  9.500000  9.460870 10.442307 10.666667 12.540230 11.500000 10.365385 10.640000 
dram[6]: 13.525641 12.345238 12.638555 11.282609 11.084210  9.600000 11.216495 11.621053  9.790909 10.451923 11.880435 11.354167 11.967033 12.277778 12.159091 11.652174 
dram[7]: 14.746479 15.323529 13.137500 12.585366 10.303922 11.083333 12.697675 13.875000 10.288462 10.666667 13.059524 12.010870 12.032967 12.505747 12.321839 12.635294 
dram[8]: 15.115942 13.189874 11.522223 12.250000 11.397849 11.135417 13.687500 13.835443  9.880733 10.810000 13.083333 12.825582 11.913043 12.397727 12.764706 12.418605 
dram[9]: 14.732394 13.428572 10.812500  9.601851 10.989473 10.918367 13.108434 13.696202 10.725491 12.200000 12.800000 12.054945 11.836957 12.755814 12.785714 11.911111 
dram[10]: 13.175000 13.294871 10.245098 10.009615 10.616161 11.135417 12.858824 11.741936 10.247619  9.819819 11.505263 11.298969 12.375000 12.211111 11.404255 10.948454 
average row locality = 188741/16054 = 11.756634
number of total memory accesses made:
dram[0]:         0         0         0         0         0         0         0         0         0         0         0         0         0         0         0         0 
dram[1]:         0         0         0         0         0         0         0         0         0         0         0         0         0         0         0         0 
dram[2]:         0         0         0         0         0         0         0         0         0         0         0         0         0         0         0         0 
dram[3]:         0         0         0         0         0         0         0         0         0         0         0         0         0         0         0         0 
dram[4]:         0         0         0         0         0         0         0         0         0         0         0         0         0         0         0         0 
dram[5]:         0         0         0         0         0         0         0         0         0         0         0         0         0         0         0         0 
dram[6]:         0         0         0         0         0         0         0         0         0         0         0         0         0         0         0         0 
dram[7]:         0         0         0         0         0         0         0         0         0         0         0         0         0         0         0         0 
dram[8]:         0         0         0         0         0         0         0         0         0         0         0         0         0         0         0         0 
dram[9]:         0         0         0         0         0         0         0         0         0         0         0         0         0         0         0         0 
dram[10]:         0         0         0         0         0         0         0         0         0         0         0         0         0         0         0         0 
total accesses: 0
min_bank_accesses = 0!
min_chip_accesses = 0!
number of total read accesses:
dram[0]:       561       560       560       560       560       560       560       560       560       560       548       548       560       560       560       560 
dram[1]:       560       560       560       560       560       560       560       560       560       560       549       549       560       560       560       560 
dram[2]:       560       560       560       560       560       560       560       560       560       560       549       549       560       560       560       560 
dram[3]:       560       560       560       560       560       560       560       560       560       560       549       549       560       560       560       560 
dram[4]:       560       560       560       560       560       560       560       560       560       560       549       549       560       560       561       561 
dram[5]:       560       560       560       560       560       560       560       560       560       560       548       548       560       560       561       561 
dram[6]:       560       560       560       560       560       560       560       560       560       560       548       548       560       560       561       561 
dram[7]:       560       560       560       560       560       560       560       560       560       560       548       548       560       560       561       561 
dram[8]:       560       560       560       560       560       560       560       560       560       560       548       548       560       560       561       561 
dram[9]:       560       560       560       560       560       560       560       560       560       560       548       548       560       560       561       561 
dram[10]:       560       560       560       560       560       560       560       560       560       560       548       548       560       560       561       560 
total reads: 98318
bank skew: 561/548 = 1.02
chip skew: 8940/8937 = 1.00
number of total write accesses:
dram[0]:       493       480       484       479       486       495       538       547       522       532       540       542       526       547       508       503 
dram[1]:       491       483       489       470       487       496       535       540       523       531       539       544       535       527       512       519 
dram[2]:       480       480       487       471       495       506       531       543       509       521       547       557       543       537       513       514 
dram[3]:       478       475       486       465       485       507       536       528       522       531       554       551       536       541       519       503 
dram[4]:       495       476       477       473       490       505       518       527       518       532       543       548       533       539       516       507 
dram[5]:       492       473       488       471       483       500       529       545       523       528       538       540       531       544       517       503 
dram[6]:       495       477       489       478       493       496       528       544       517       527       545       542       529       545       509       511 
dram[7]:       487       482       491       472       491       504       532       550       510       528       549       557       535       528       511       513 
dram[8]:       483       482       477       469       500       509       535       533       517       521       551       555       536       531       524       507 
dram[9]:       486       474       478       477       484       510       528       522       534       538       540       549       529       537       513       511 
dram[10]:       494       477       485       481       491       509       533       532       516       530       545       548       529       539       511       502 
total reads: 90423
bank skew: 557/465 = 1.20
chip skew: 8240/8197 = 1.01
average mf latency per bank:
dram[0]:      11194     11252     14525     14931     15709     15279     12100     12293      6532      6329      9004      8984     13735     13656     11956     11791
dram[1]:      11749     11970     14535     14723     15783     15430     12412     12497      6583      6428      9158      9103     13748     14062     12012     11729
dram[2]:      11721     11856     14496     14789     15397     15362     12575     12526      6468      6052      9151      9015     13991     14172     11998     11797
dram[3]:      12042     11757     14371     14781     15675     15057     12294     12326      6471      6197      9053      9070     13946     14109     12015     11785
dram[4]:      11809     11897     13922     13987     16196     15939     12206     12045      6500      6227      8833      8453     14048     13941     11689     11537
dram[5]:      12146     12599     13626     13921     16415     16025     11755     11794      6683      6539      8284      8287     13972     13901     11019     10940
dram[6]:      12205     12106     14012     14198     16313     16110     12066     12131      6834      6594      9474      9813     13932     14091     11483     11319
dram[7]:      11892     12230     14057     14370     16379     16342     12779     12891      6625      6163      9802      9749     14348     14581     11564     11381
dram[8]:      12077     11933     14325     14623     16018     15734     12787     12654      6235      5946      9787      9707     14372     14616     11499     11436
dram[9]:      12061     11764     13950     14076     16007     15169     12051     11953      6296      6049      9931      9854     14395     14367     12095     11969
dram[10]:      11179     11449     13798     13894     15866     15711     11822     11991      6405      6188      9942      9846     14134     13765     11832     11613
maximum mf latency per bank:
dram[0]:     124036    123967    124813    124680    124507    124477    123758    123719    123046    122891    124026    124031    123724    123740    243814    243834
dram[1]:     124067    123989    124957    124673    124572    124565    123748    123755    122986    123019    124025    124037    123852    123996    243800    243829
dram[2]:     124026    123974    124807    124757    124584    124552    123755    123764    123015    122995    124027    124034    123896    124043    243808    243831
dram[3]:     124022    124047    124732    124801    124488    124508    123760    123737    123069    123072    124035    124037    123847    123970    243807    243881
dram[4]:     124001    124021    124706    124666    124603    124534    123744    123755    123051    123004    124032    124036    123751    123805    243809    123723
dram[5]:     124162    124007    124578    124672    124514    124544    123562    123729    123015    122923    124029    124026    123735    123756    123664    123679
dram[6]:     124143    124014    124961    124672    124455    124506    123731    123756    123043    123003    124038    124054    123845    123914    123704    123720
dram[7]:     124008    124088    124748    124759    124586    124586    123783    124042    122982    123015    124032    124035    123847    123943    123669    123710
dram[8]:     124140    124144    124786    124880    124533    124501    123813    123828    123011    123071    124027    124065    123893    123996    123684    123713
dram[9]:     124081    124091    124774    124764    124634    124582    123724    123734    123050    122978    124038    124040    123712    123828    243764    243774
dram[10]:     124055    124047    124685    124743    124565    124551    123741    123799    123024    122964    124041    124044    123755    123779    243797    243810
Memory Partition 0: 
Cache L2_bank_000:
MSHR contents

Cache L2_bank_001:
MSHR contents

In Dram Latency Queue (total = 0): 
DRAM[0]: 16 bks, busW=4 BL=8 CL=12, tRRD=2 tCCD=6, tRCD=12 tRAS=28 tRP=12 tRC=40
n_cmd=3337388 n_nop=3279257 n_act=1569 n_pre=1553 n_req=17159 n_rd=35748 n_write=19261 bw_util=0.03297
n_activity=192496 dram_eff=0.5715
bk0: 2244a 3317379i bk1: 2240a 3315660i bk2: 2240a 3315935i bk3: 2240a 3315019i bk4: 2240a 3315668i bk5: 2240a 3313878i bk6: 2240a 3314949i bk7: 2240a 3314198i bk8: 2240a 3315452i bk9: 2240a 3313709i bk10: 2192a 3315222i bk11: 2192a 3314312i bk12: 2240a 3315449i bk13: 2240a 3314272i bk14: 2240a 3316560i bk15: 2240a 3314883i 
dram_util_bins: 0 0 0 0 0 0 0 0 0 0
dram_eff_bins: 0 0 0 0 0 0 0 0 0 0
mrqq: max=64 avg=0.353797
Memory Partition 1: 
Cache L2_bank_002:
MSHR contents

Cache L2_bank_003:
MSHR contents

In Dram Latency Queue (total = 0): 
DRAM[1]: 16 bks, busW=4 BL=8 CL=12, tRRD=2 tCCD=6, tRCD=12 tRAS=28 tRP=12 tRC=40
n_cmd=3337388 n_nop=3279517 n_act=1479 n_pre=1463 n_req=17159 n_rd=35752 n_write=19177 bw_util=0.03292
n_activity=191521 dram_eff=0.5736
bk0: 2240a 3317238i bk1: 2240a 3315462i bk2: 2240a 3316734i bk3: 2240a 3315831i bk4: 2240a 3316187i bk5: 2240a 3315280i bk6: 2240a 3315793i bk7: 2240a 3315038i bk8: 2240a 3314946i bk9: 2240a 3314380i bk10: 2196a 3316021i bk11: 2196a 3314771i bk12: 2240a 3315310i bk13: 2240a 3314193i bk14: 2240a 3316151i bk15: 2240a 3314684i 
dram_util_bins: 0 0 0 0 0 0 0 0 0 0
dram_eff_bins: 0 0 0 0 0 0 0 0 0 0
mrqq: max=64 avg=0.345678
Memory Partition 2: 
Cache L2_bank_004:
MSHR contents

Cache L2_bank_005:
MSHR contents

In Dram Latency Queue (total = 0): 
DRAM[2]: 16 bks, busW=4 BL=8 CL=12, tRRD=2 tCCD=6, tRCD=12 tRAS=28 tRP=12 tRC=40
n_cmd=3337388 n_nop=3279582 n_act=1409 n_pre=1393 n_req=17172 n_rd=35752 n_write=19252 bw_util=0.03296
n_activity=190976 dram_eff=0.576
bk0: 2240a 3317655i bk1: 2240a 3315925i bk2: 2240a 3316674i bk3: 2240a 3315730i bk4: 2240a 3315698i bk5: 2240a 3315233i bk6: 2240a 3315945i bk7: 2240a 3315628i bk8: 2240a 3316359i bk9: 2240a 3314881i bk10: 2196a 3315729i bk11: 2196a 3314634i bk12: 2240a 3315158i bk13: 2240a 3313875i bk14: 2240a 3316088i bk15: 2240a 3315650i 
dram_util_bins: 0 0 0 0 0 0 0 0 0 0
dram_eff_bins: 0 0 0 0 0 0 0 0 0 0
mrqq: max=64 avg=0.344182
Memory Partition 3: 
Cache L2_bank_006:
MSHR contents

Cache L2_bank_007:
MSHR contents

In Dram Latency Queue (total = 0): 
DRAM[3]: 16 bks, busW=4 BL=8 CL=12, tRRD=2 tCCD=6, tRCD=12 tRAS=28 tRP=12 tRC=40
n_cmd=3337388 n_nop=3279720 n_act=1347 n_pre=1331 n_req=17155 n_rd=35752 n_write=19238 bw_util=0.03295
n_activity=191675 dram_eff=0.5738
bk0: 2240a 3317957i bk1: 2240a 3316745i bk2: 2240a 3316743i bk3: 2240a 3316560i bk4: 2240a 3316866i bk5: 2240a 3315484i bk6: 2240a 3315862i bk7: 2240a 3315623i bk8: 2240a 3315233i bk9: 2240a 3314326i bk10: 2196a 3315646i bk11: 2196a 3315017i bk12: 2240a 3315124i bk13: 2240a 3314080i bk14: 2240a 3316925i bk15: 2240a 3315532i 
dram_util_bins: 0 0 0 0 0 0 0 0 0 0
dram_eff_bins: 0 0 0 0 0 0 0 0 0 0
mrqq: max=64 avg=0.343991
Memory Partition 4: 
Cache L2_bank_008:
MSHR contents

Cache L2_bank_009:
MSHR contents

In Dram Latency Queue (total = 0): 
DRAM[4]: 16 bks, busW=4 BL=8 CL=12, tRRD=2 tCCD=6, tRCD=12 tRAS=28 tRP=12 tRC=40
n_cmd=3337388 n_nop=3279625 n_act=1414 n_pre=1398 n_req=17137 n_rd=35760 n_write=19191 bw_util=0.03293
n_activity=191233 dram_eff=0.5747
bk0: 2240a 3316326i bk1: 2240a 3315374i bk2: 2240a 3316503i bk3: 2240a 3315785i bk4: 2240a 3316560i bk5: 2240a 3314721i bk6: 2240a 3316318i bk7: 2240a 3315238i bk8: 2240a 3315954i bk9: 2240a 3314997i bk10: 2196a 3315215i bk11: 2196a 3314129i bk12: 2240a 3316668i bk13: 2240a 3314500i bk14: 2244a 3316959i bk15: 2244a 3315341i 
dram_util_bins: 0 0 0 0 0 0 0 0 0 0
dram_eff_bins: 0 0 0 0 0 0 0 0 0 0
mrqq: max=64 avg=0.346964
Memory Partition 5: 
Cache L2_bank_010:
MSHR contents

Cache L2_bank_011:
MSHR contents

In Dram Latency Queue (total = 0): 
DRAM[5]: 16 bks, busW=4 BL=8 CL=12, tRRD=2 tCCD=6, tRCD=12 tRAS=28 tRP=12 tRC=40
n_cmd=3337388 n_nop=3279201 n_act=1602 n_pre=1586 n_req=17143 n_rd=35752 n_write=19247 bw_util=0.03296
n_activity=192868 dram_eff=0.5703
bk0: 2240a 3316556i bk1: 2240a 3316331i bk2: 2240a 3316892i bk3: 2240a 3316145i bk4: 2240a 3315196i bk5: 2240a 3314008i bk6: 2240a 3315779i bk7: 2240a 3314698i bk8: 2240a 3315288i bk9: 2240a 3313719i bk10: 2192a 3316021i bk11: 2192a 3315423i bk12: 2240a 3315830i bk13: 2240a 3313578i bk14: 2244a 3316102i bk15: 2244a 3315089i 
dram_util_bins: 0 0 0 0 0 0 0 0 0 0
dram_eff_bins: 0 0 0 0 0 0 0 0 0 0
mrqq: max=64 avg=0.345919
Memory Partition 6: 
Cache L2_bank_012:
MSHR contents

Cache L2_bank_013:
MSHR contents

In Dram Latency Queue (total = 0): 
DRAM[6]: 16 bks, busW=4 BL=8 CL=12, tRRD=2 tCCD=6, tRCD=12 tRAS=28 tRP=12 tRC=40
n_cmd=3337388 n_nop=3279452 n_act=1497 n_pre=1481 n_req=17163 n_rd=35752 n_write=19206 bw_util=0.03293
n_activity=191132 dram_eff=0.5751
bk0: 2240a 3316868i bk1: 2240a 3316590i bk2: 2240a 3317251i bk3: 2240a 3316442i bk4: 2240a 3315288i bk5: 2240a 3313803i bk6: 2240a 3315326i bk7: 2240a 3314607i bk8: 2240a 3315434i bk9: 2240a 3314301i bk10: 2192a 3315708i bk11: 2192a 3315582i bk12: 2240a 3315219i bk13: 2240a 3314262i bk14: 2244a 3316160i bk15: 2244a 3314643i 
dram_util_bins: 0 0 0 0 0 0 0 0 0 0
dram_eff_bins: 0 0 0 0 0 0 0 0 0 0
mrqq: max=64 avg=0.345694
Memory Partition 7: 
Cache L2_bank_014:
MSHR contents

Cache L2_bank_015:
MSHR contents

In Dram Latency Queue (total = 0): 
DRAM[7]: 16 bks, busW=4 BL=8 CL=12, tRRD=2 tCCD=6, tRCD=12 tRAS=28 tRP=12 tRC=40
n_cmd=3337388 n_nop=3279645 n_act=1397 n_pre=1381 n_req=17178 n_rd=35752 n_write=19213 bw_util=0.03294
n_activity=191170 dram_eff=0.575
bk0: 2240a 3317971i bk1: 2240a 3316651i bk2: 2240a 3316892i bk3: 2240a 3316413i bk4: 2240a 3315550i bk5: 2240a 3315165i bk6: 2240a 3315835i bk7: 2240a 3315716i bk8: 2240a 3315096i bk9: 2240a 3313951i bk10: 2192a 3315592i bk11: 2192a 3314895i bk12: 2240a 3315650i bk13: 2240a 3314105i bk14: 2244a 3316194i bk15: 2244a 3315300i 
dram_util_bins: 0 0 0 0 0 0 0 0 0 0
dram_eff_bins: 0 0 0 0 0 0 0 0 0 0
mrqq: max=64 avg=0.345463
Memory Partition 8: 
Cache L2_bank_016:
MSHR contents

Cache L2_bank_017:
MSHR contents

In Dram Latency Queue (total = 0): 
DRAM[8]: 16 bks, busW=4 BL=8 CL=12, tRRD=2 tCCD=6, tRCD=12 tRAS=28 tRP=12 tRC=40
n_cmd=3337388 n_nop=3279582 n_act=1400 n_pre=1384 n_req=17168 n_rd=35752 n_write=19270 bw_util=0.03297
n_activity=192111 dram_eff=0.5728
bk0: 2240a 3317805i bk1: 2240a 3316066i bk2: 2240a 3316599i bk3: 2240a 3316391i bk4: 2240a 3316563i bk5: 2240a 3314986i bk6: 2240a 3315872i bk7: 2240a 3316133i bk8: 2240a 3315093i bk9: 2240a 3314541i bk10: 2192a 3315515i bk11: 2192a 3315132i bk12: 2240a 3315344i bk13: 2240a 3315326i bk14: 2244a 3316326i bk15: 2244a 3315343i 
dram_util_bins: 0 0 0 0 0 0 0 0 0 0
dram_eff_bins: 0 0 0 0 0 0 0 0 0 0
mrqq: max=64 avg=0.345357
Memory Partition 9: 
Cache L2_bank_018:
MSHR contents

Cache L2_bank_019:
MSHR contents

In Dram Latency Queue (total = 0): 
DRAM[9]: 16 bks, busW=4 BL=8 CL=12, tRRD=2 tCCD=6, tRCD=12 tRAS=28 tRP=12 tRC=40
n_cmd=3337388 n_nop=3279573 n_act=1427 n_pre=1411 n_req=17148 n_rd=35752 n_write=19225 bw_util=0.03295
n_activity=191988 dram_eff=0.5727
bk0: 2240a 3317702i bk1: 2240a 3317210i bk2: 2240a 3316754i bk3: 2240a 3316084i bk4: 2240a 3316070i bk5: 2240a 3314234i bk6: 2240a 3315669i bk7: 2240a 3315788i bk8: 2240a 3315452i bk9: 2240a 3315212i bk10: 2192a 3316851i bk11: 2192a 3314228i bk12: 2240a 3315448i bk13: 2240a 3315057i bk14: 2244a 3316643i bk15: 2244a 3315125i 
dram_util_bins: 0 0 0 0 0 0 0 0 0 0
dram_eff_bins: 0 0 0 0 0 0 0 0 0 0
mrqq: max=64 avg=0.34805
Memory Partition 10: 
Cache L2_bank_020:
MSHR contents

Cache L2_bank_021:
MSHR contents

In Dram Latency Queue (total = 0): 
DRAM[10]: 16 bks, busW=4 BL=8 CL=12, tRRD=2 tCCD=6, tRCD=12 tRAS=28 tRP=12 tRC=40
n_cmd=3337388 n_nop=3279350 n_act=1514 n_pre=1498 n_req=17159 n_rd=35748 n_write=19278 bw_util=0.03298
n_activity=192114 dram_eff=0.5728
bk0: 2240a 3316548i bk1: 2240a 3315481i bk2: 2240a 3316275i bk3: 2240a 3315010i bk4: 2240a 3315786i bk5: 2240a 3313985i bk6: 2240a 3315966i bk7: 2240a 3314504i bk8: 2240a 3315483i bk9: 2240a 3313843i bk10: 2192a 3315302i bk11: 2192a 3314830i bk12: 2240a 3315972i bk13: 2240a 3313981i bk14: 2244a 3316262i bk15: 2240a 3315259i 
dram_util_bins: 0 0 0 0 0 0 0 0 0 0
dram_eff_bins: 0 0 0 0 0 0 0 0 0 0
mrqq: max=64 avg=0.347847

========= L2 cache stats =========
L2_cache_bank[0]: Access = 20620, Miss = 4469, Miss_rate = 0.217, Pending_hits = 6916, Reservation_fails = 4
L2_cache_bank[1]: Access = 20905, Miss = 4468, Miss_rate = 0.214, Pending_hits = 7061, Reservation_fails = 10
L2_cache_bank[2]: Access = 20570, Miss = 4469, Miss_rate = 0.217, Pending_hits = 6915, Reservation_fails = 1
L2_cache_bank[3]: Access = 20910, Miss = 4469, Miss_rate = 0.214, Pending_hits = 6997, Reservation_fails = 4
L2_cache_bank[4]: Access = 20562, Miss = 4469, Miss_rate = 0.217, Pending_hits = 6854, Reservation_fails = 8
L2_cache_bank[5]: Access = 20901, Miss = 4469, Miss_rate = 0.214, Pending_hits = 7023, Reservation_fails = 8
L2_cache_bank[6]: Access = 20556, Miss = 4469, Miss_rate = 0.217, Pending_hits = 6956, Reservation_fails = 6
L2_cache_bank[7]: Access = 20897, Miss = 4469, Miss_rate = 0.214, Pending_hits = 6989, Reservation_fails = 4
L2_cache_bank[8]: Access = 20582, Miss = 4470, Miss_rate = 0.217, Pending_hits = 6881, Reservation_fails = 6
L2_cache_bank[9]: Access = 20926, Miss = 4470, Miss_rate = 0.214, Pending_hits = 7006, Reservation_fails = 4
L2_cache_bank[10]: Access = 20583, Miss = 4469, Miss_rate = 0.217, Pending_hits = 6916, Reservation_fails = 5
L2_cache_bank[11]: Access = 20925, Miss = 4469, Miss_rate = 0.214, Pending_hits = 7053, Reservation_fails = 10
L2_cache_bank[12]: Access = 20590, Miss = 4469, Miss_rate = 0.217, Pending_hits = 6948, Reservation_fails = 5
L2_cache_bank[13]: Access = 20929, Miss = 4469, Miss_rate = 0.214, Pending_hits = 7074, Reservation_fails = 9
L2_cache_bank[14]: Access = 20586, Miss = 4469, Miss_rate = 0.217, Pending_hits = 6881, Reservation_fails = 8
L2_cache_bank[15]: Access = 20925, Miss = 4469, Miss_rate = 0.214, Pending_hits = 7011, Reservation_fails = 8
L2_cache_bank[16]: Access = 20580, Miss = 4469, Miss_rate = 0.217, Pending_hits = 6882, Reservation_fails = 7
L2_cache_bank[17]: Access = 20920, Miss = 4469, Miss_rate = 0.214, Pending_hits = 7074, Reservation_fails = 12
L2_cache_bank[18]: Access = 20578, Miss = 4469, Miss_rate = 0.217, Pending_hits = 6919, Reservation_fails = 10
L2_cache_bank[19]: Access = 20921, Miss = 4469, Miss_rate = 0.214, Pending_hits = 6992, Reservation_fails = 4
L2_cache_bank[20]: Access = 20581, Miss = 4469, Miss_rate = 0.217, Pending_hits = 6929, Reservation_fails = 5
L2_cache_bank[21]: Access = 20897, Miss = 4468, Miss_rate = 0.214, Pending_hits = 6961, Reservation_fails = 6
L2_total_cache_accesses = 456444
L2_total_cache_misses = 98318
L2_total_cache_miss_rate = 0.2154
L2_total_cache_pending_hits = 153238
L2_total_cache_reservation_fails = 144
L2_total_cache_breakdown:
	L2_cache_stats_breakdown[GLOBAL_ACC_R][HIT] = 171948
	L2_cache_stats_breakdown[GLOBAL_ACC_R][HIT_RESERVED] = 108972
	L2_cache_stats_breakdown[GLOBAL_ACC_R][MISS] = 65536
	L2_cache_stats_breakdown[GLOBAL_ACC_R][RESERVATION_FAIL] = 1
	L2_cache_stats_breakdown[LOCAL_ACC_R][HIT] = 0
	L2_cache_stats_breakdown[LOCAL_ACC_R][HIT_RESERVED] = 0
	L2_cache_stats_breakdown[LOCAL_ACC_R][MISS] = 0
	L2_cache_stats_breakdown[LOCAL_ACC_R][RESERVATION_FAIL] = 0
	L2_cache_stats_breakdown[CONST_ACC_R][HIT] = 28
	L2_cache_stats_breakdown[CONST_ACC_R][HIT_RESERVED] = 27
	L2_cache_stats_breakdown[CONST_ACC_R][MISS] = 1
	L2_cache_stats_breakdown[CONST_ACC_R][RESERVATION_FAIL] = 0
	L2_cache_stats_breakdown[TEXTURE_ACC_R][HIT] = 0
	L2_cache_stats_breakdown[TEXTURE_ACC_R][HIT_RESERVED] = 0
	L2_cache_stats_breakdown[TEXTURE_ACC_R][MISS] = 0
	L2_cache_stats_breakdown[TEXTURE_ACC_R][RESERVATION_FAIL] = 0
	L2_cache_stats_breakdown[GLOBAL_ACC_W][HIT] = 32902
	L2_cache_stats_breakdown[GLOBAL_ACC_W][HIT_RESERVED] = 43898
	L2_cache_stats_breakdown[GLOBAL_ACC_W][MISS] = 32768
	L2_cache_stats_breakdown[GLOBAL_ACC_W][RESERVATION_FAIL] = 143
	L2_cache_stats_breakdown[LOCAL_ACC_W][HIT] = 0
	L2_cache_stats_breakdown[LOCAL_ACC_W][HIT_RESERVED] = 0
	L2_cache_stats_breakdown[LOCAL_ACC_W][MISS] = 0
	L2_cache_stats_breakdown[LOCAL_ACC_W][RESERVATION_FAIL] = 0
	L2_cache_stats_breakdown[L1_WRBK_ACC][HIT] = 0
	L2_cache_stats_breakdown[L1_WRBK_ACC][HIT_RESERVED] = 0
	L2_cache_stats_breakdown[L1_WRBK_ACC][MISS] = 0
	L2_cache_stats_breakdown[L1_WRBK_ACC][RESERVATION_FAIL] = 0
	L2_cache_stats_breakdown[L2_WRBK_ACC][HIT] = 0
	L2_cache_stats_breakdown[L2_WRBK_ACC][HIT_RESERVED] = 0
	L2_cache_stats_breakdown[L2_WRBK_ACC][MISS] = 0
	L2_cache_stats_breakdown[L2_WRBK_ACC][RESERVATION_FAIL] = 0
	L2_cache_stats_breakdown[INST_ACC_R][HIT] = 10
	L2_cache_stats_breakdown[INST_ACC_R][HIT_RESERVED] = 341
	L2_cache_stats_breakdown[INST_ACC_R][MISS] = 13
	L2_cache_stats_breakdown[INST_ACC_R][RESERVATION_FAIL] = 0
	L2_cache_stats_breakdown[L1_WR_ALLOC_R][HIT] = 0
	L2_cache_stats_breakdown[L1_WR_ALLOC_R][HIT_RESERVED] = 0
	L2_cache_stats_breakdown[L1_WR_ALLOC_R][MISS] = 0
	L2_cache_stats_breakdown[L1_WR_ALLOC_R][RESERVATION_FAIL] = 0
	L2_cache_stats_breakdown[L2_WR_ALLOC_R][HIT] = 0
	L2_cache_stats_breakdown[L2_WR_ALLOC_R][HIT_RESERVED] = 0
	L2_cache_stats_breakdown[L2_WR_ALLOC_R][MISS] = 0
	L2_cache_stats_breakdown[L2_WR_ALLOC_R][RESERVATION_FAIL] = 0
	L2_cache_stats_breakdown[GLOBAL_ACC_R][TOTAL_ACCESS] = 346456
	L2_cache_stats_breakdown[CONST_ACC_R][TOTAL_ACCESS] = 56
	L2_cache_stats_breakdown[GLOBAL_ACC_W][TOTAL_ACCESS] = 109568
	L2_cache_stats_breakdown[INST_ACC_R][TOTAL_ACCESS] = 364
L2_cache_data_port_util = 0.013
L2_cache_fill_port_util = 0.010

icnt_total_pkts_mem_to_simt=1270956
icnt_total_pkts_simt_to_mem=674556
LD_mem_lat_dist  0 0 0 0 0 0 0 0 0 0 0 0 0 0 0 0 0 0 0 0 0 0 0 0 0 0 0
ST_mem_lat_dist  0 0 0 0 0 0 0 0 0 0 0 0 0 0 0 0 0 0 0 0 0 0 0 0 0 0 0
----------------------------Interconnect-DETAILS--------------------------------
Class 0:
Packet latency average = 16.5337
	minimum = 6
	maximum = 752
Network latency average = 13.0534
	minimum = 6
	maximum = 747
Slowest packet = 534860
Flit latency average = 13.0503
	minimum = 6
	maximum = 743
Slowest flit = 1143041
Fragmentation average = 0.00158837
	minimum = 0
	maximum = 658
Injected packet rate average = 0.00507912
	minimum = 0.00439289 (at node 2)
	maximum = 0.00582223 (at node 41)
Accepted packet rate average = 0.00507912
	minimum = 0.00439289 (at node 2)
	maximum = 0.00582223 (at node 41)
Injected flit rate average = 0.0108244
	minimum = 0.00653607 (at node 16)
	maximum = 0.0162018 (at node 37)
Accepted flit rate average= 0.0108244
	minimum = 0.0084884 (at node 34)
	maximum = 0.0129255 (at node 17)
Injected packet length average = 2.13116
Accepted packet length average = 2.13116
Total in-flight flits = 0 (0 measured)
====== Overall Traffic Statistics ======
====== Traffic class 0 ======
Packet latency average = 16.5337 (1 samples)
	minimum = 6 (1 samples)
	maximum = 752 (1 samples)
Network latency average = 13.0534 (1 samples)
	minimum = 6 (1 samples)
	maximum = 747 (1 samples)
Flit latency average = 13.0503 (1 samples)
	minimum = 6 (1 samples)
	maximum = 743 (1 samples)
Fragmentation average = 0.00158837 (1 samples)
	minimum = 0 (1 samples)
	maximum = 658 (1 samples)
Injected packet rate average = 0.00507912 (1 samples)
	minimum = 0.00439289 (1 samples)
	maximum = 0.00582223 (1 samples)
Accepted packet rate average = 0.00507912 (1 samples)
	minimum = 0.00439289 (1 samples)
	maximum = 0.00582223 (1 samples)
Injected flit rate average = 0.0108244 (1 samples)
	minimum = 0.00653607 (1 samples)
	maximum = 0.0162018 (1 samples)
Accepted flit rate average = 0.0108244 (1 samples)
	minimum = 0.0084884 (1 samples)
	maximum = 0.0129255 (1 samples)
Injected packet size average = 2.13116 (1 samples)
Accepted packet size average = 2.13116 (1 samples)
Hops average = 1 (1 samples)
----------------------------END-of-Interconnect-DETAILS-------------------------


gpgpu_simulation_time = 0 days, 0 hrs, 40 min, 5 sec (2405 sec)
gpgpu_simulation_rate = 172751 (inst/sec)
gpgpu_simulation_rate = 839 (cycle/sec)

GPGPU-Sim PTX: cudaLaunch for 0x0x401ae2 (mode=performance simulation) on stream 0
GPGPU-Sim PTX: pushing kernel '_Z14calculate_tempiPfS_S_iiiiffffff' to stream 0, gridDim= (86,86,1) blockDim = (16,16,1) 
GPGPU-Sim uArch: Shader 19 bind to kernel 2 '_Z14calculate_tempiPfS_S_iiiiffffff'
GPGPU-Sim uArch: Shader 20 bind to kernel 2 '_Z14calculate_tempiPfS_S_iiiiffffff'
GPGPU-Sim uArch: Shader 21 bind to kernel 2 '_Z14calculate_tempiPfS_S_iiiiffffff'
GPGPU-Sim uArch: Shader 22 bind to kernel 2 '_Z14calculate_tempiPfS_S_iiiiffffff'
GPGPU-Sim uArch: Shader 23 bind to kernel 2 '_Z14calculate_tempiPfS_S_iiiiffffff'
GPGPU-Sim uArch: Shader 24 bind to kernel 2 '_Z14calculate_tempiPfS_S_iiiiffffff'
GPGPU-Sim uArch: Shader 25 bind to kernel 2 '_Z14calculate_tempiPfS_S_iiiiffffff'
GPGPU-Sim uArch: Shader 26 bind to kernel 2 '_Z14calculate_tempiPfS_S_iiiiffffff'
GPGPU-Sim uArch: Shader 27 bind to kernel 2 '_Z14calculate_tempiPfS_S_iiiiffffff'
GPGPU-Sim uArch: Shader 0 bind to kernel 2 '_Z14calculate_tempiPfS_S_iiiiffffff'
GPGPU-Sim uArch: Shader 1 bind to kernel 2 '_Z14calculate_tempiPfS_S_iiiiffffff'
GPGPU-Sim uArch: Shader 2 bind to kernel 2 '_Z14calculate_tempiPfS_S_iiiiffffff'
GPGPU-Sim uArch: Shader 3 bind to kernel 2 '_Z14calculate_tempiPfS_S_iiiiffffff'
GPGPU-Sim uArch: Shader 4 bind to kernel 2 '_Z14calculate_tempiPfS_S_iiiiffffff'
GPGPU-Sim uArch: Shader 5 bind to kernel 2 '_Z14calculate_tempiPfS_S_iiiiffffff'
GPGPU-Sim uArch: Shader 6 bind to kernel 2 '_Z14calculate_tempiPfS_S_iiiiffffff'
GPGPU-Sim uArch: Shader 7 bind to kernel 2 '_Z14calculate_tempiPfS_S_iiiiffffff'
GPGPU-Sim uArch: Shader 8 bind to kernel 2 '_Z14calculate_tempiPfS_S_iiiiffffff'
GPGPU-Sim uArch: Shader 9 bind to kernel 2 '_Z14calculate_tempiPfS_S_iiiiffffff'
GPGPU-Sim uArch: Shader 10 bind to kernel 2 '_Z14calculate_tempiPfS_S_iiiiffffff'
GPGPU-Sim uArch: Shader 11 bind to kernel 2 '_Z14calculate_tempiPfS_S_iiiiffffff'
GPGPU-Sim uArch: Shader 12 bind to kernel 2 '_Z14calculate_tempiPfS_S_iiiiffffff'
GPGPU-Sim uArch: Shader 13 bind to kernel 2 '_Z14calculate_tempiPfS_S_iiiiffffff'
GPGPU-Sim uArch: Shader 14 bind to kernel 2 '_Z14calculate_tempiPfS_S_iiiiffffff'
GPGPU-Sim uArch: Shader 15 bind to kernel 2 '_Z14calculate_tempiPfS_S_iiiiffffff'
GPGPU-Sim uArch: Shader 16 bind to kernel 2 '_Z14calculate_tempiPfS_S_iiiiffffff'
GPGPU-Sim uArch: Shader 17 bind to kernel 2 '_Z14calculate_tempiPfS_S_iiiiffffff'
GPGPU-Sim uArch: Shader 18 bind to kernel 2 '_Z14calculate_tempiPfS_S_iiiiffffff'
Destroy streams for kernel 2: size 0
kernel_name = _Z14calculate_tempiPfS_S_iiiiffffff 
kernel_launch_uid = 2 
gpu_sim_cycle = 278774
gpu_sim_insn = 415466464
gpu_ipc =    1490.3344
gpu_tot_sim_cycle = 2520410
gpu_tot_sim_insn = 830932928
gpu_tot_ipc =     329.6816
gpu_tot_issued_cta = 14792
max_total_param_size = 0
gpu_stall_dramfull = 57938
gpu_stall_icnt2sh    = 856494
partiton_reqs_in_parallel = 6125647
partiton_reqs_in_parallel_total    = 39490835
partiton_level_parallism =      21.9735
partiton_level_parallism_total  =      18.0988
partiton_reqs_in_parallel_util = 6125647
partiton_reqs_in_parallel_util_total    = 39490835
gpu_sim_cycle_parition_util = 278774
gpu_tot_sim_cycle_parition_util    = 1796712
partiton_level_parallism_util =      21.9735
partiton_level_parallism_util_total  =      21.9787
partiton_replys_in_parallel = 456024
partiton_replys_in_parallel_total    = 456444
L2_BW  =     155.0495 GB/Sec
L2_BW_total  =      34.3148 GB/Sec
gpu_total_sim_rate=211218

========= Core cache stats =========
L1I_cache:
	L1I_total_cache_accesses = 15480000
	L1I_total_cache_misses = 8688
	L1I_total_cache_miss_rate = 0.0006
	L1I_total_cache_pending_hits = 0
	L1I_total_cache_reservation_fails = 6846
L1D_cache:
	L1D_cache_core[0]: Access = 0, Miss = 0, Miss_rate = -nan, Pending_hits = 0, Reservation_fails = 0
	L1D_cache_core[1]: Access = 0, Miss = 0, Miss_rate = -nan, Pending_hits = 0, Reservation_fails = 0
	L1D_cache_core[2]: Access = 0, Miss = 0, Miss_rate = -nan, Pending_hits = 0, Reservation_fails = 0
	L1D_cache_core[3]: Access = 0, Miss = 0, Miss_rate = -nan, Pending_hits = 0, Reservation_fails = 0
	L1D_cache_core[4]: Access = 0, Miss = 0, Miss_rate = -nan, Pending_hits = 0, Reservation_fails = 0
	L1D_cache_core[5]: Access = 0, Miss = 0, Miss_rate = -nan, Pending_hits = 0, Reservation_fails = 0
	L1D_cache_core[6]: Access = 0, Miss = 0, Miss_rate = -nan, Pending_hits = 0, Reservation_fails = 0
	L1D_cache_core[7]: Access = 0, Miss = 0, Miss_rate = -nan, Pending_hits = 0, Reservation_fails = 0
	L1D_cache_core[8]: Access = 0, Miss = 0, Miss_rate = -nan, Pending_hits = 0, Reservation_fails = 0
	L1D_cache_core[9]: Access = 0, Miss = 0, Miss_rate = -nan, Pending_hits = 0, Reservation_fails = 0
	L1D_cache_core[10]: Access = 0, Miss = 0, Miss_rate = -nan, Pending_hits = 0, Reservation_fails = 0
[...]
Shader2: Tlb_access: 65460 Tlb_hit: 59383 Tlb_miss: 6077 Tlb_hit_rate: 0.907165
Shader3: Tlb_access: 65228 Tlb_hit: 58581 Tlb_miss: 6647 Tlb_hit_rate: 0.898096
Shader4: Tlb_access: 64940 Tlb_hit: 59230 Tlb_miss: 5710 Tlb_hit_rate: 0.912073
Shader5: Tlb_access: 66424 Tlb_hit: 60088 Tlb_miss: 6336 Tlb_hit_rate: 0.904613
Shader6: Tlb_access: 65144 Tlb_hit: 58870 Tlb_miss: 6274 Tlb_hit_rate: 0.903690
Shader7: Tlb_access: 65920 Tlb_hit: 59802 Tlb_miss: 6118 Tlb_hit_rate: 0.907191
Shader8: Tlb_access: 65620 Tlb_hit: 58991 Tlb_miss: 6629 Tlb_hit_rate: 0.898979
Shader9: Tlb_access: 65276 Tlb_hit: 58976 Tlb_miss: 6300 Tlb_hit_rate: 0.903487
Shader10: Tlb_access: 65132 Tlb_hit: 59116 Tlb_miss: 6016 Tlb_hit_rate: 0.907634
Shader11: Tlb_access: 65960 Tlb_hit: 59919 Tlb_miss: 6041 Tlb_hit_rate: 0.908414
Shader12: Tlb_access: 64604 Tlb_hit: 58758 Tlb_miss: 5846 Tlb_hit_rate: 0.909510
Shader13: Tlb_access: 66192 Tlb_hit: 59784 Tlb_miss: 6408 Tlb_hit_rate: 0.903191
Shader14: Tlb_access: 64080 Tlb_hit: 58182 Tlb_miss: 5898 Tlb_hit_rate: 0.907959
Shader15: Tlb_access: 65280 Tlb_hit: 59284 Tlb_miss: 5996 Tlb_hit_rate: 0.908149
Shader16: Tlb_access: 64948 Tlb_hit: 58873 Tlb_miss: 6075 Tlb_hit_rate: 0.906464
Shader17: Tlb_access: 65532 Tlb_hit: 59549 Tlb_miss: 5983 Tlb_hit_rate: 0.908701
Shader18: Tlb_access: 65268 Tlb_hit: 58903 Tlb_miss: 6365 Tlb_hit_rate: 0.902479
Shader19: Tlb_access: 65480 Tlb_hit: 59465 Tlb_miss: 6015 Tlb_hit_rate: 0.908140
Shader20: Tlb_access: 64640 Tlb_hit: 58450 Tlb_miss: 6190 Tlb_hit_rate: 0.904239
Shader21: Tlb_access: 65408 Tlb_hit: 59694 Tlb_miss: 5714 Tlb_hit_rate: 0.912641
Shader22: Tlb_access: 65548 Tlb_hit: 59085 Tlb_miss: 6463 Tlb_hit_rate: 0.901401
Shader23: Tlb_access: 64924 Tlb_hit: 58757 Tlb_miss: 6167 Tlb_hit_rate: 0.905012
Shader24: Tlb_access: 64156 Tlb_hit: 57972 Tlb_miss: 6184 Tlb_hit_rate: 0.903610
Shader25: Tlb_access: 65780 Tlb_hit: 59260 Tlb_miss: 6520 Tlb_hit_rate: 0.900882
Shader26: Tlb_access: 64548 Tlb_hit: 58263 Tlb_miss: 6285 Tlb_hit_rate: 0.902631
Shader27: Tlb_access: 63664 Tlb_hit: 57465 Tlb_miss: 6199 Tlb_hit_rate: 0.902629
Tlb_tot_access: 1824096 Tlb_tot_hit: 1651108, Tlb_tot_miss: 172988, Tlb_tot_hit_rate: 0.905165
========================================TLB statistics(validate)==============================
Shader0: Tlb_validate: 3072 Tlb_invalidate: 2048 Tlb_evict: 0 Tlb_page_evict: 2048
Shader1: Tlb_validate: 3072 Tlb_invalidate: 2048 Tlb_evict: 0 Tlb_page_evict: 2048
Shader2: Tlb_validate: 3072 Tlb_invalidate: 2048 Tlb_evict: 0 Tlb_page_evict: 2048
Shader3: Tlb_validate: 3072 Tlb_invalidate: 2048 Tlb_evict: 0 Tlb_page_evict: 2048
Shader4: Tlb_validate: 3072 Tlb_invalidate: 2048 Tlb_evict: 0 Tlb_page_evict: 2048
Shader5: Tlb_validate: 3072 Tlb_invalidate: 2048 Tlb_evict: 0 Tlb_page_evict: 2048
Shader6: Tlb_validate: 3072 Tlb_invalidate: 2048 Tlb_evict: 0 Tlb_page_evict: 2048
Shader7: Tlb_validate: 3072 Tlb_invalidate: 2048 Tlb_evict: 0 Tlb_page_evict: 2048
Shader8: Tlb_validate: 3072 Tlb_invalidate: 2048 Tlb_evict: 0 Tlb_page_evict: 2048
Shader9: Tlb_validate: 3072 Tlb_invalidate: 2048 Tlb_evict: 0 Tlb_page_evict: 2048
Shader10: Tlb_validate: 3072 Tlb_invalidate: 2048 Tlb_evict: 0 Tlb_page_evict: 2048
Shader11: Tlb_validate: 3072 Tlb_invalidate: 2048 Tlb_evict: 0 Tlb_page_evict: 2048
Shader12: Tlb_validate: 3072 Tlb_invalidate: 2048 Tlb_evict: 0 Tlb_page_evict: 2048
Shader13: Tlb_validate: 3072 Tlb_invalidate: 2048 Tlb_evict: 0 Tlb_page_evict: 2048
Shader14: Tlb_validate: 3072 Tlb_invalidate: 2048 Tlb_evict: 0 Tlb_page_evict: 2048
Shader15: Tlb_validate: 3072 Tlb_invalidate: 2048 Tlb_evict: 0 Tlb_page_evict: 2048
Shader16: Tlb_validate: 3072 Tlb_invalidate: 2048 Tlb_evict: 0 Tlb_page_evict: 2048
Shader17: Tlb_validate: 3072 Tlb_invalidate: 2048 Tlb_evict: 0 Tlb_page_evict: 2048
Shader18: Tlb_validate: 3072 Tlb_invalidate: 2048 Tlb_evict: 0 Tlb_page_evict: 2048
Shader19: Tlb_validate: 3072 Tlb_invalidate: 2048 Tlb_evict: 0 Tlb_page_evict: 2048
Shader20: Tlb_validate: 3072 Tlb_invalidate: 2048 Tlb_evict: 0 Tlb_page_evict: 2048
Shader21: Tlb_validate: 3072 Tlb_invalidate: 2048 Tlb_evict: 0 Tlb_page_evict: 2048
Shader22: Tlb_validate: 3072 Tlb_invalidate: 2048 Tlb_evict: 0 Tlb_page_evict: 2048
Shader23: Tlb_validate: 3072 Tlb_invalidate: 2048 Tlb_evict: 0 Tlb_page_evict: 2048
Shader24: Tlb_validate: 3072 Tlb_invalidate: 2048 Tlb_evict: 0 Tlb_page_evict: 2048
Shader25: Tlb_validate: 3072 Tlb_invalidate: 2048 Tlb_evict: 0 Tlb_page_evict: 2048
Shader26: Tlb_validate: 3072 Tlb_invalidate: 2048 Tlb_evict: 0 Tlb_page_evict: 2048
Shader27: Tlb_validate: 3072 Tlb_invalidate: 2048 Tlb_evict: 0 Tlb_page_evict: 2048
Tlb_tot_valiate: 86016 Tlb_invalidate: 57344, Tlb_tot_evict: 0, Tlb_tot_evict page: 57344
========================================TLB statistics(thrashing)==============================
Shader0: Total 0
Shader1: Total 0
Shader2: Total 0
Shader3: Total 0
Shader4: Total 0
Shader5: Total 0
Shader6: Total 0
Shader7: Total 0
Shader8: Total 0
Shader9: Total 0
Shader10: Total 0
Shader11: Total 0
Shader12: Total 0
Shader13: Total 0
Shader14: Total 0
Shader15: Total 0
Shader16: Total 0
Shader17: Total 0
Shader18: Total 0
Shader19: Total 0
Shader20: Total 0
Shader21: Total 0
Shader22: Total 0
Shader23: Total 0
Shader24: Total 0
Shader25: Total 0
Shader26: Total 0
Shader27: Total 0
Tlb_tot_thrash: 0
========================================Page fault statistics==============================
Shader0: Page_table_access:6337 Page_hit: 4785 Page_miss: 1552 Page_hit_rate: 0.755089
Shader1: Page_table_access:6195 Page_hit: 4709 Page_miss: 1486 Page_hit_rate: 0.760129
Shader2: Page_table_access:6077 Page_hit: 4637 Page_miss: 1440 Page_hit_rate: 0.763041
Shader3: Page_table_access:6647 Page_hit: 5043 Page_miss: 1604 Page_hit_rate: 0.758688
Shader4: Page_table_access:5710 Page_hit: 4466 Page_miss: 1244 Page_hit_rate: 0.782137
Shader5: Page_table_access:6336 Page_hit: 4792 Page_miss: 1544 Page_hit_rate: 0.756313
Shader6: Page_table_access:6274 Page_hit: 4840 Page_miss: 1434 Page_hit_rate: 0.771438
Shader7: Page_table_access:6118 Page_hit: 4546 Page_miss: 1572 Page_hit_rate: 0.743053
Shader8: Page_table_access:6629 Page_hit: 5191 Page_miss: 1438 Page_hit_rate: 0.783074
Shader9: Page_table_access:6300 Page_hit: 4750 Page_miss: 1550 Page_hit_rate: 0.753968
Shader10: Page_table_access:6016 Page_hit: 4490 Page_miss: 1526 Page_hit_rate: 0.746343
Shader11: Page_table_access:6041 Page_hit: 4559 Page_miss: 1482 Page_hit_rate: 0.754676
Shader12: Page_table_access:5846 Page_hit: 4530 Page_miss: 1316 Page_hit_rate: 0.774889
Shader13: Page_table_access:6408 Page_hit: 4910 Page_miss: 1498 Page_hit_rate: 0.766230
Shader14: Page_table_access:5898 Page_hit: 4442 Page_miss: 1456 Page_hit_rate: 0.753137
Shader15: Page_table_access:5996 Page_hit: 4602 Page_miss: 1394 Page_hit_rate: 0.767512
Shader16: Page_table_access:6075 Page_hit: 4591 Page_miss: 1484 Page_hit_rate: 0.755720
Shader17: Page_table_access:5983 Page_hit: 4491 Page_miss: 1492 Page_hit_rate: 0.750627
Shader18: Page_table_access:6365 Page_hit: 4791 Page_miss: 1574 Page_hit_rate: 0.752710
Shader19: Page_table_access:6015 Page_hit: 4439 Page_miss: 1576 Page_hit_rate: 0.737988
Shader20: Page_table_access:6190 Page_hit: 4818 Page_miss: 1372 Page_hit_rate: 0.778352
Shader21: Page_table_access:5714 Page_hit: 4256 Page_miss: 1458 Page_hit_rate: 0.744837
Shader22: Page_table_access:6463 Page_hit: 4793 Page_miss: 1670 Page_hit_rate: 0.741606
Shader23: Page_table_access:6167 Page_hit: 4645 Page_miss: 1522 Page_hit_rate: 0.753203
Shader24: Page_table_access:6184 Page_hit: 4798 Page_miss: 1386 Page_hit_rate: 0.775873
Shader25: Page_table_access:6520 Page_hit: 4802 Page_miss: 1718 Page_hit_rate: 0.736503
Shader26: Page_table_access:6285 Page_hit: 4717 Page_miss: 1568 Page_hit_rate: 0.750517
Shader27: Page_table_access:6199 Page_hit: 4683 Page_miss: 1516 Page_hit_rate: 0.755444
Page_table_tot_access: 172988 Page_tot_hit: 131116, Page_tot_miss 41872, Page_tot_hit_rate: 0.757949 Page_tot_fault: 36 Page_tot_pending: 41836
Total_memory_access_page_fault: 36, Average_latency: 873000.187500
========================================Page thrashing statistics==============================
Page_validate: 3072 Page_evict_dirty: 0 Page_evict_not_dirty: 0
Page_tot_thrash: 0
========================================Memory access statistics==============================
========================================Prefetch statistics==============================
Tot_page_hit: 0, Tot_page_miss: 0, Tot_page_fault: 0
Avg_page_latency: 0.000000, Avg_prefetch_size: -nan, Avg_prefetch_latency: 0.000000
========================================Rdma statistics==============================
dma_read: 0
dma_migration_read 0
dma_migration_write 0
========================================PCI-e statistics==============================
Pcie_read_utilization: 1.051951
[0-25]: 0.043478, [26-50]: 0.000000, [51-75]: 0.018295, [76-100]: 0.938226
Pcie_write_utilization: 0.000000
[0-25]: -nan, [26-50]: -nan, [51-75]: -nan, [76-100]: -nan
F:   222150----T:  2019486 	 	 	 Kl: 1 	 Sm: 0 	 T: kernel_launch(1213.596191)
F:   223848----T:   230260 	 St: c0000000 Sz: 45056 	 Sm: 0 	 T: memcpy_h2d(4.329507)
F:   230260----T:   234072 	 St: c000b000 Sz: 20480 	 Sm: 0 	 T: memcpy_h2d(2.573936)
F:   234072----T:   238713 	 St: c0010000 Sz: 28672 	 Sm: 0 	 T: memcpy_h2d(3.133693)
F:   238713----T:   244228 	 St: c0017000 Sz: 36864 	 Sm: 0 	 T: memcpy_h2d(3.723835)
F:   244228----T:   247314 	 St: c0020000 Sz: 12288 	 Sm: 0 	 T: memcpy_h2d(2.083727)
F:   247314----T:   262072 	 St: c0023000 Sz: 118784 	 Sm: 0 	 T: memcpy_h2d(9.964889)
F:   262072----T:   264677 	 St: c0800000 Sz: 4096 	 Sm: 0 	 T: memcpy_h2d(1.758947)
F:   264677----T:   272917 	 St: c0801000 Sz: 61440 	 Sm: 0 	 T: memcpy_h2d(5.563808)
F:   272917----T:   275522 	 St: c0810000 Sz: 4096 	 Sm: 0 	 T: memcpy_h2d(1.758947)
F:   275522----T:   283762 	 St: c0811000 Sz: 61440 	 Sm: 0 	 T: memcpy_h2d(5.563808)
F:   283762----T:   286367 	 St: c0820000 Sz: 4096 	 Sm: 0 	 T: memcpy_h2d(1.758947)
F:   286367----T:   302062 	 St: c0821000 Sz: 126976 	 Sm: 0 	 T: memcpy_h2d(10.597569)
F:   302062----T:   304667 	 St: c0400000 Sz: 4096 	 Sm: 0 	 T: memcpy_h2d(1.758947)
F:   304667----T:   312907 	 St: c0401000 Sz: 61440 	 Sm: 0 	 T: memcpy_h2d(5.563808)
F:   312907----T:   315512 	 St: c0410000 Sz: 4096 	 Sm: 0 	 T: memcpy_h2d(1.758947)
F:   315512----T:   323752 	 St: c0411000 Sz: 61440 	 Sm: 0 	 T: memcpy_h2d(5.563808)
F:   323752----T:   326357 	 St: c0420000 Sz: 4096 	 Sm: 0 	 T: memcpy_h2d(1.758947)
F:   326357----T:   342052 	 St: c0421000 Sz: 126976 	 Sm: 0 	 T: memcpy_h2d(10.597569)
F:   349667----T:   352753 	 St: c0040000 Sz: 12288 	 Sm: 0 	 T: memcpy_h2d(2.083727)
F:   352753----T:   382536 	 St: c0043000 Sz: 249856 	 Sm: 0 	 T: memcpy_h2d(20.110062)
F:   382536----T:   385141 	 St: c0840000 Sz: 4096 	 Sm: 0 	 T: memcpy_h2d(1.758947)
F:   385141----T:   415864 	 St: c0841000 Sz: 258048 	 Sm: 0 	 T: memcpy_h2d(20.744766)
F:   421169----T:   423774 	 St: c0440000 Sz: 4096 	 Sm: 0 	 T: memcpy_h2d(1.758947)
F:   423774----T:   454497 	 St: c0441000 Sz: 258048 	 Sm: 0 	 T: memcpy_h2d(20.744766)
F:   462832----T:   465918 	 St: c0080000 Sz: 12288 	 Sm: 0 	 T: memcpy_h2d(2.083727)
F:   465918----T:   525813 	 St: c0083000 Sz: 512000 	 Sm: 0 	 T: memcpy_h2d(40.442268)
F:   525813----T:   528418 	 St: c0880000 Sz: 4096 	 Sm: 0 	 T: memcpy_h2d(1.758947)
F:   528418----T:   589254 	 St: c0881000 Sz: 520192 	 Sm: 0 	 T: memcpy_h2d(41.077652)
F:   594748----T:   597353 	 St: c0480000 Sz: 4096 	 Sm: 0 	 T: memcpy_h2d(1.758947)
F:   597353----T:   658189 	 St: c0481000 Sz: 520192 	 Sm: 0 	 T: memcpy_h2d(41.077652)
F:   682509----T:   685595 	 St: c0100000 Sz: 12288 	 Sm: 0 	 T: memcpy_h2d(2.083727)
F:   685595----T:   805743 	 St: c0103000 Sz: 1036288 	 Sm: 0 	 T: memcpy_h2d(81.126266)
F:   805743----T:   808348 	 St: c0900000 Sz: 4096 	 Sm: 0 	 T: memcpy_h2d(1.758947)
F:   808348----T:   929437 	 St: c0901000 Sz: 1044480 	 Sm: 0 	 T: memcpy_h2d(81.761650)
F:   934917----T:   937522 	 St: c0500000 Sz: 4096 	 Sm: 0 	 T: memcpy_h2d(1.758947)
F:   937522----T:  1058611 	 St: c0501000 Sz: 1044480 	 Sm: 0 	 T: memcpy_h2d(81.761650)
F:  1118532----T:  1121618 	 St: c0200000 Sz: 12288 	 Sm: 0 	 T: memcpy_h2d(2.083727)
F:  1121618----T:  1128940 	 St: c0203000 Sz: 53248 	 Sm: 0 	 T: memcpy_h2d(4.943957)
F:  1128940----T:  1131545 	 St: c0a00000 Sz: 4096 	 Sm: 0 	 T: memcpy_h2d(1.758947)
F:  1131545----T:  1139785 	 St: c0a01000 Sz: 61440 	 Sm: 0 	 T: memcpy_h2d(5.563808)
F:  1140390----T:  1142995 	 St: c0210000 Sz: 4096 	 Sm: 0 	 T: memcpy_h2d(1.758947)
F:  1142995----T:  1151235 	 St: c0211000 Sz: 61440 	 Sm: 0 	 T: memcpy_h2d(5.563808)
F:  1151235----T:  1153840 	 St: c0600000 Sz: 4096 	 Sm: 0 	 T: memcpy_h2d(1.758947)
F:  1153840----T:  1162080 	 St: c0601000 Sz: 61440 	 Sm: 0 	 T: memcpy_h2d(5.563808)
F:  1162080----T:  1164685 	 St: c0a10000 Sz: 4096 	 Sm: 0 	 T: memcpy_h2d(1.758947)
F:  1164685----T:  1172925 	 St: c0a11000 Sz: 61440 	 Sm: 0 	 T: memcpy_h2d(5.563808)
F:  1174131----T:  1177217 	 St: c0220000 Sz: 12288 	 Sm: 0 	 T: memcpy_h2d(2.083727)
F:  1177217----T:  1191975 	 St: c0223000 Sz: 118784 	 Sm: 0 	 T: memcpy_h2d(9.964889)
F:  1191975----T:  1195061 	 St: c0610000 Sz: 12288 	 Sm: 0 	 T: memcpy_h2d(2.083727)
F:  1195061----T:  1202383 	 St: c0613000 Sz: 53248 	 Sm: 0 	 T: memcpy_h2d(4.943957)
F:  1202383----T:  1204988 	 St: c0a20000 Sz: 4096 	 Sm: 0 	 T: memcpy_h2d(1.758947)
F:  1204988----T:  1220683 	 St: c0a21000 Sz: 126976 	 Sm: 0 	 T: memcpy_h2d(10.597569)
F:  1222294----T:  1224899 	 St: c0240000 Sz: 4096 	 Sm: 0 	 T: memcpy_h2d(1.758947)
F:  1224899----T:  1255622 	 St: c0241000 Sz: 258048 	 Sm: 0 	 T: memcpy_h2d(20.744766)
F:  1255622----T:  1258227 	 St: c0620000 Sz: 4096 	 Sm: 0 	 T: memcpy_h2d(1.758947)
F:  1258227----T:  1273922 	 St: c0621000 Sz: 126976 	 Sm: 0 	 T: memcpy_h2d(10.597569)
F:  1273922----T:  1276527 	 St: c0a40000 Sz: 4096 	 Sm: 0 	 T: memcpy_h2d(1.758947)
F:  1276527----T:  1307250 	 St: c0a41000 Sz: 258048 	 Sm: 0 	 T: memcpy_h2d(20.744766)
F:  1314636----T:  1317241 	 St: c0640000 Sz: 4096 	 Sm: 0 	 T: memcpy_h2d(1.758947)
F:  1317241----T:  1347964 	 St: c0641000 Sz: 258048 	 Sm: 0 	 T: memcpy_h2d(20.744766)
F:  1356580----T:  1359666 	 St: c0280000 Sz: 12288 	 Sm: 0 	 T: memcpy_h2d(2.083727)
F:  1359666----T:  1419561 	 St: c0283000 Sz: 512000 	 Sm: 0 	 T: memcpy_h2d(40.442268)
F:  1419561----T:  1422166 	 St: c0a80000 Sz: 4096 	 Sm: 0 	 T: memcpy_h2d(1.758947)
F:  1422166----T:  1483002 	 St: c0a81000 Sz: 520192 	 Sm: 0 	 T: memcpy_h2d(41.077652)
F:  1488406----T:  1491011 	 St: c0680000 Sz: 4096 	 Sm: 0 	 T: memcpy_h2d(1.758947)
F:  1491011----T:  1551847 	 St: c0681000 Sz: 520192 	 Sm: 0 	 T: memcpy_h2d(41.077652)
F:  1575499----T:  1578104 	 St: c0300000 Sz: 4096 	 Sm: 0 	 T: memcpy_h2d(1.758947)
F:  1578104----T:  1699193 	 St: c0301000 Sz: 1044480 	 Sm: 0 	 T: memcpy_h2d(81.761650)
F:  1699568----T:  1702173 	 St: c0b00000 Sz: 4096 	 Sm: 0 	 T: memcpy_h2d(1.758947)
F:  1702173----T:  1823262 	 St: c0b01000 Sz: 1044480 	 Sm: 0 	 T: memcpy_h2d(81.761650)
F:  1829225----T:  1831830 	 St: c0700000 Sz: 4096 	 Sm: 0 	 T: memcpy_h2d(1.758947)
F:  1831830----T:  1952919 	 St: c0701000 Sz: 1044480 	 Sm: 0 	 T: memcpy_h2d(81.761650)
F:  2241636----T:  2520410 	 	 	 Kl: 2 	 Sm: 0 	 T: kernel_launch(188.233627)
F:  2742560----T:  3020981 	 	 	 Kl: 3 	 Sm: 0 	 T: kernel_launch(187.995270)
F:  3243131----T:  3521897 	 	 	 Kl: 4 	 Sm: 0 	 T: kernel_launch(188.228226)
F:  3521897----T:  3524502 	 St: 0 Sz: 4096 	 Sm: 0 	 T: device_sync(1.758947)
F:  3521897----T:  3530137 	 St: 0 Sz: 61440 	 Sm: 0 	 T: device_sync(5.563808)
F:  3532742----T:  3535347 	 St: 0 Sz: 4096 	 Sm: 0 	 T: device_sync(1.758947)
F:  3532742----T:  3540982 	 St: 0 Sz: 61440 	 Sm: 0 	 T: device_sync(5.563808)
F:  3543587----T:  3546192 	 St: 0 Sz: 4096 	 Sm: 0 	 T: device_sync(1.758947)
F:  3543587----T:  3559282 	 St: 0 Sz: 126976 	 Sm: 0 	 T: device_sync(10.597569)
F:  3561887----T:  3564492 	 St: 0 Sz: 4096 	 Sm: 0 	 T: device_sync(1.758947)
F:  3561887----T:  3592610 	 St: 0 Sz: 258048 	 Sm: 0 	 T: device_sync(20.744766)
F:  3595215----T:  3597820 	 St: 0 Sz: 4096 	 Sm: 0 	 T: device_sync(1.758947)
F:  3595215----T:  3656051 	 St: 0 Sz: 520192 	 Sm: 0 	 T: device_sync(41.077652)
F:  3658656----T:  3661261 	 St: 0 Sz: 4096 	 Sm: 0 	 T: device_sync(1.758947)
F:  3658656----T:  3779745 	 St: 0 Sz: 1044480 	 Sm: 0 	 T: device_sync(81.761650)
F:  3782350----T:  3784955 	 St: 0 Sz: 4096 	 Sm: 0 	 T: device_sync(1.758947)
F:  3782350----T:  3790590 	 St: 0 Sz: 61440 	 Sm: 0 	 T: device_sync(5.563808)
F:  3793195----T:  3795800 	 St: 0 Sz: 4096 	 Sm: 0 	 T: device_sync(1.758947)
F:  3793195----T:  3801435 	 St: 0 Sz: 61440 	 Sm: 0 	 T: device_sync(5.563808)
F:  3804040----T:  3806645 	 St: 0 Sz: 4096 	 Sm: 0 	 T: device_sync(1.758947)
F:  3804040----T:  3819735 	 St: 0 Sz: 126976 	 Sm: 0 	 T: device_sync(10.597569)
F:  3822340----T:  3824945 	 St: 0 Sz: 4096 	 Sm: 0 	 T: device_sync(1.758947)
F:  3822340----T:  3853063 	 St: 0 Sz: 258048 	 Sm: 0 	 T: device_sync(20.744766)
F:  3855668----T:  3858273 	 St: 0 Sz: 4096 	 Sm: 0 	 T: device_sync(1.758947)
F:  3855668----T:  3916504 	 St: 0 Sz: 520192 	 Sm: 0 	 T: device_sync(41.077652)
F:  3919109----T:  3921714 	 St: 0 Sz: 4096 	 Sm: 0 	 T: device_sync(1.758947)
F:  3919109----T:  4040198 	 St: 0 Sz: 1044480 	 Sm: 0 	 T: device_sync(81.761650)
F:  4042803----T:  4045408 	 St: 0 Sz: 4096 	 Sm: 0 	 T: device_sync(1.758947)
F:  4042803----T:  4051043 	 St: 0 Sz: 61440 	 Sm: 0 	 T: device_sync(5.563808)
F:  4053648----T:  4056253 	 St: 0 Sz: 4096 	 Sm: 0 	 T: device_sync(1.758947)
F:  4053648----T:  4061888 	 St: 0 Sz: 61440 	 Sm: 0 	 T: device_sync(5.563808)
F:  4064493----T:  4067098 	 St: 0 Sz: 4096 	 Sm: 0 	 T: device_sync(1.758947)
F:  4064493----T:  4080188 	 St: 0 Sz: 126976 	 Sm: 0 	 T: device_sync(10.597569)
F:  4082793----T:  4085398 	 St: 0 Sz: 4096 	 Sm: 0 	 T: device_sync(1.758947)
F:  4082793----T:  4113516 	 St: 0 Sz: 258048 	 Sm: 0 	 T: device_sync(20.744766)
F:  4116121----T:  4118726 	 St: 0 Sz: 4096 	 Sm: 0 	 T: device_sync(1.758947)
F:  4116121----T:  4176957 	 St: 0 Sz: 520192 	 Sm: 0 	 T: device_sync(41.077652)
F:  4179562----T:  4182167 	 St: 0 Sz: 4096 	 Sm: 0 	 T: device_sync(1.758947)
F:  4179562----T:  4300651 	 St: 0 Sz: 1044480 	 Sm: 0 	 T: device_sync(81.761650)
F:  4303256----T:  4305861 	 St: 0 Sz: 4096 	 Sm: 0 	 T: device_sync(1.758947)
F:  4303256----T:  4311496 	 St: 0 Sz: 61440 	 Sm: 0 	 T: device_sync(5.563808)
F:  4314101----T:  4316706 	 St: 0 Sz: 4096 	 Sm: 0 	 T: device_sync(1.758947)
F:  4314101----T:  4322341 	 St: 0 Sz: 61440 	 Sm: 0 	 T: device_sync(5.563808)
F:  4324946----T:  4327551 	 St: 0 Sz: 4096 	 Sm: 0 	 T: device_sync(1.758947)
F:  4324946----T:  4340641 	 St: 0 Sz: 126976 	 Sm: 0 	 T: device_sync(10.597569)
F:  4343246----T:  4345851 	 St: 0 Sz: 4096 	 Sm: 0 	 T: device_sync(1.758947)
F:  4343246----T:  4373969 	 St: 0 Sz: 258048 	 Sm: 0 	 T: device_sync(20.744766)
F:  4376574----T:  4379179 	 St: 0 Sz: 4096 	 Sm: 0 	 T: device_sync(1.758947)
F:  4376574----T:  4437410 	 St: 0 Sz: 520192 	 Sm: 0 	 T: device_sync(41.077652)
F:  4440015----T:  4442620 	 St: 0 Sz: 4096 	 Sm: 0 	 T: device_sync(1.758947)
F:  4440015----T:  4561104 	 St: 0 Sz: 1044480 	 Sm: 0 	 T: device_sync(81.761650)
Tot_prefetch_time: 0(cycle), 0.000000(us)
Tot_kernel_exec_time: 2633297(cycle), 1778.053345(us)
Tot_kernel_exec_time_and_fault_time: 5032517(cycle), 3398.053223(us)
Tot_memcpy_h2d_time: 1557783(cycle), 1051.845337(us)
Tot_memcpy_d2h_time: 0(cycle), 0.000000(us)
Tot_memcpy_time: 1557783(cycle), 1051.845337(us)
Tot_devicesync_time: 1041812(cycle), 703.451721(us)
Tot_writeback_time: 0(cycle), 0.000000(us)
Tot_dma_time: 0(cycle), 0.000000(us)
Tot_memcpy_d2h_sync_wb_time: 1041812(cycle), 703.451721(us)
GPGPU-Sim: *** exit detected ***
