

        *** GPGPU-Sim Simulator Version 3.2.2  [build gpgpu-sim_git-commit-a513576454652bb9ff570b490c6e5cd62c467387_modified_0] ***


GPGPU-Sim PTX: simulation mode 0 (can change with PTX_SIM_MODE_FUNC environment variable:
               1=functional simulation only, 0=detailed performance simulator)
GPGPU-Sim: Configuration options:

-network_mode                           1 # Interconnection network mode
-inter_config_file   config_fermi_islip.icnt # Interconnection network config file
-gpgpu_ptx_use_cuobjdump                    1 # Use cuobjdump to extract ptx and sass from binaries
-gpgpu_experimental_lib_support                    0 # Try to extract code from cuda libraries [Broken because of unknown cudaGetExportTable]
-gpgpu_ptx_convert_to_ptxplus                    0 # Convert SASS (native ISA) to ptxplus and run ptxplus
-gpgpu_ptx_force_max_capability                   20 # Force maximum compute capability
-gpgpu_ptx_inst_debug_to_file                    0 # Dump executed instructions' debug information to file
-gpgpu_ptx_inst_debug_file       inst_debug.txt # Executed instructions' debug output file
-gpgpu_ptx_inst_debug_thread_uid                    1 # Thread UID for executed instructions' debug output
-gpgpu_simd_model                       1 # 1 = post-dominator
-gpgpu_shader_core_pipeline              2048:32 # shader core pipeline config, i.e., {<nthread>:<warpsize>}
-gpgpu_tex_cache:l1  16:128:24,L:R:m:N:L,F:128:4,128:2 # per-shader L1 texture cache  (READ-ONLY) config  {<nsets>:<bsize>:<assoc>,<rep>:<wr>:<alloc>:<wr_alloc>,<mshr>:<N>:<merge>,<mq>:<rf>}
-gpgpu_const_cache:l1 128:64:2,L:R:f:N:L,A:2:64,4 # per-shader L1 constant memory cache  (READ-ONLY) config  {<nsets>:<bsize>:<assoc>,<rep>:<wr>:<alloc>:<wr_alloc>,<mshr>:<N>:<merge>,<mq>} 
-gpgpu_cache:il1     8:128:4,L:R:f:N:L,A:2:48,4 # shader L1 instruction cache config  {<nsets>:<bsize>:<assoc>,<rep>:<wr>:<alloc>:<wr_alloc>,<mshr>:<N>:<merge>,<mq>} 
-gpgpu_cache:dl1     64:128:6,L:L:m:N:H,A:128:8,8 # per-shader L1 data cache config  {<nsets>:<bsize>:<assoc>,<rep>:<wr>:<alloc>:<wr_alloc>,<mshr>:<N>:<merge>,<mq> | none}
-gpgpu_cache:dl1PrefL1                 none # per-shader L1 data cache config  {<nsets>:<bsize>:<assoc>,<rep>:<wr>:<alloc>:<wr_alloc>,<mshr>:<N>:<merge>,<mq> | none}
-gpgpu_cache:dl1PrefShared                 none # per-shader L1 data cache config  {<nsets>:<bsize>:<assoc>,<rep>:<wr>:<alloc>:<wr_alloc>,<mshr>:<N>:<merge>,<mq> | none}
-gmem_skip_L1D                          1 # global memory access skip L1D cache (implements -Xptxas -dlcm=cg, default=no skip)
-gpgpu_perfect_mem                      0 # enable perfect memory mode (no cache miss)
-n_regfile_gating_group                    4 # group of lanes that should be read/written together)
-gpgpu_clock_gated_reg_file                    0 # enable clock gated reg file for power calculations
-gpgpu_clock_gated_lanes                    0 # enable clock gated lanes for power calculations
-gpgpu_shader_registers                65536 # Number of registers per shader core. Limits number of concurrent CTAs. (default 8192)
-gpgpu_shader_cta                      32 # Maximum number of concurrent CTAs in shader (default 8)
-gpgpu_num_cta_barriers                   16 # Maximum number of named barriers per CTA (default 16)
-gpgpu_n_clusters                      28 # number of processing clusters
-gpgpu_n_cores_per_cluster                    1 # number of simd cores per cluster
-gpgpu_n_cluster_ejection_buffer_size                    8 # number of packets in ejection buffer
-gpgpu_n_ldst_response_buffer_size                    2 # number of response packets in ld/st unit ejection buffer
-gpgpu_shmem_size                   16384 # Size of shared memory per shader core (default 16kB)
-gpgpu_shmem_size                   98304 # Size of shared memory per shader core (default 16kB)
-gpgpu_shmem_size_PrefL1                16384 # Size of shared memory per shader core (default 16kB)
-gpgpu_shmem_size_PrefShared                16384 # Size of shared memory per shader core (default 16kB)
-gpgpu_shmem_num_banks                   32 # Number of banks in the shared memory in each shader core (default 16)
-gpgpu_shmem_limited_broadcast                    0 # Limit shared memory to do one broadcast per cycle (default on)
-gpgpu_shmem_warp_parts                    1 # Number of portions a warp is divided into for shared memory bank conflict check 
-gpgpu_warpdistro_shader                   -1 # Specify which shader core to collect the warp size distribution from
-gpgpu_warp_issue_shader                    0 # Specify which shader core to collect the warp issue distribution from
-gpgpu_local_mem_map                    1 # Mapping from local memory space address to simulated GPU physical address space (default = enabled)
-gpgpu_num_reg_banks                   32 # Number of register banks (default = 8)
-gpgpu_reg_bank_use_warp_id                    0 # Use warp ID in mapping registers to banks (default = off)
-gpgpu_operand_collector_num_units_sp                   20 # number of collector units (default = 4)
-gpgpu_operand_collector_num_units_sfu                    4 # number of collector units (default = 4)
-gpgpu_operand_collector_num_units_mem                    8 # number of collector units (default = 2)
-gpgpu_operand_collector_num_units_gen                    0 # number of collector units (default = 0)
-gpgpu_operand_collector_num_in_ports_sp                    4 # number of collector unit in ports (default = 1)
-gpgpu_operand_collector_num_in_ports_sfu                    1 # number of collector unit in ports (default = 1)
-gpgpu_operand_collector_num_in_ports_mem                    1 # number of collector unit in ports (default = 1)
-gpgpu_operand_collector_num_in_ports_gen                    0 # number of collector unit in ports (default = 0)
-gpgpu_operand_collector_num_out_ports_sp                    4 # number of collector unit in ports (default = 1)
-gpgpu_operand_collector_num_out_ports_sfu                    1 # number of collector unit in ports (default = 1)
-gpgpu_operand_collector_num_out_ports_mem                    1 # number of collector unit in ports (default = 1)
-gpgpu_operand_collector_num_out_ports_gen                    0 # number of collector unit in ports (default = 0)
-gpgpu_coalesce_arch                   13 # Coalescing arch (default = 13, anything else is off for now)
-gpgpu_num_sched_per_core                    2 # Number of warp schedulers per core
-gpgpu_max_insn_issue_per_warp                    2 # Max number of instructions that can be issued per warp in one cycle by scheduler
-gpgpu_simt_core_sim_order                    1 # Select the simulation order of cores in a cluster (0=Fix, 1=Round-Robin)
-gpgpu_pipeline_widths        4,1,1,4,1,1,6 # Pipeline widths ID_OC_SP,ID_OC_SFU,ID_OC_MEM,OC_EX_SP,OC_EX_SFU,OC_EX_MEM,EX_WB
-gpgpu_num_sp_units                     4 # Number of SP units (default=1)
-gpgpu_num_sfu_units                    1 # Number of SF units (default=1)
-gpgpu_num_mem_units                    1 # Number if ldst units (default=1) WARNING: not hooked up to anything
-gpgpu_scheduler                      gto # Scheduler configuration: < lrr | gto | two_level_active > If two_level_active:<num_active_warps>:<inner_prioritization>:<outer_prioritization>For complete list of prioritization values see shader.h enum scheduler_prioritization_typeDefault: gto
-gpgpu_concurrent_kernel_sm                    0 # Support concurrent kernels on a SM (default = disabled)
-tlb_size                            4096 # Number of tlb entries per SM.
-gpgpu_dram_scheduler                    1 # 0 = fifo, 1 = FR-FCFS (defaul)
-gpgpu_dram_partition_queues              8:8:8:8 # i2$:$2d:d2$:$2i
-l2_ideal                               0 # Use a ideal L2 cache that always hit
-gpgpu_cache:dl2     64:128:16,L:B:m:W:L,A:1024:1024,4:0,32 # unified banked L2 data cache config  {<nsets>:<bsize>:<assoc>,<rep>:<wr>:<alloc>:<wr_alloc>,<mshr>:<N>:<merge>,<mq>}
-gpgpu_cache:dl2_texture_only                    0 # L2 cache used for texture only
-gpgpu_n_mem                           11 # number of memory modules (e.g. memory controllers) in gpu
-gpgpu_n_sub_partition_per_mchannel                    2 # number of memory subpartition in each memory module
-gpgpu_n_mem_per_ctrlr                    1 # number of memory chips per memory controller
-gpgpu_memlatency_stat                   14 # track and display latency statistics 0x2 enables MC, 0x4 enables queue logs
-gpgpu_frfcfs_dram_sched_queue_size                   64 # 0 = unlimited (default); # entries per chip
-gpgpu_dram_return_queue_size                  116 # 0 = unlimited (default); # entries per chip
-gpgpu_dram_buswidth                    4 # default = 4 bytes (8 bytes per cycle at DDR)
-gpgpu_dram_burst_length                    8 # Burst length of each DRAM request (default = 4 data bus cycle)
-dram_data_command_freq_ratio                    4 # Frequency ratio between DRAM data bus and command bus (default = 2 times, i.e. DDR)
-gpgpu_dram_timing_opt nbk=16:CCD=2:RRD=6:RCD=12:RAS=28:RP=12:RC=40: CL=12:WL=4:CDLR=5:WR=12:nbkgrp=1:CCDL=0:RTPL=0 # DRAM timing parameters = {nbk:tCCD:tRRD:tRCD:tRAS:tRP:tRC:CL:WL:tCDLR:tWR:nbkgrp:tCCDL:tRTPL}
-rop_latency                          120 # ROP queue latency (default 85)
-dram_latency                         100 # DRAM latency (default 30)
-gpgpu_mem_addr_mapping dramid@8;00000000.00000000.00000000.00000000.0000RRRR.RRRRRRRR.RBBBCCCC.BCCSSSSS # mapping memory address to dram model {dramid@<start bit>;<memory address map>}
-gpgpu_mem_addr_test                    0 # run sweep test to check address mapping for aliased address
-gpgpu_mem_address_mask                    1 # 0 = old addressing mask, 1 = new addressing mask, 2 = new add. mask + flipped bank sel and chip sel bits
-gpuwattch_xml_file  gpuwattch_geforcegtx1080ti.xml # GPUWattch XML file
-power_simulation_enabled                    1 # Turn on power simulator (1=On, 0=Off)
-power_per_cycle_dump                    0 # Dump detailed power output each cycle
-power_trace_enabled                    0 # produce a file for the power trace (1=On, 0=Off)
-power_trace_zlevel                     6 # Compression level of the power trace output log (0=no comp, 9=highest)
-steady_power_levels_enabled                    0 # produce a file for the steady power levels (1=On, 0=Off)
-steady_state_definition                  8:4 # allowed deviation:number of samples
-gpgpu_max_cycle                        0 # terminates gpu simulation early (0 = no limit)
-gpgpu_max_insn                         0 # terminates gpu simulation early (0 = no limit)
-gpgpu_max_cta                          0 # terminates gpu simulation early (0 = no limit)
-gpgpu_runtime_stat                   500 # display runtime statistics such as dram utilization {<freq>:<flag>}
-liveness_message_freq                    1 # Minimum number of seconds between simulation liveness messages (0 = always print)
-gpgpu_flush_l1_cache                    0 # Flush L1 cache at the end of each kernel call
-gpgpu_flush_l2_cache                    0 # Flush L2 cache at the end of each kernel call
-gpgpu_deadlock_detect                    0 # Stop the simulation at deadlock (1=on (default), 0=off)
-gpgpu_ptx_instruction_classification                    0 # if enabled will classify ptx instruction types per kernel (Max 255 kernels now)
-gpgpu_ptx_sim_mode                     0 # Select between Performance (default) or Functional simulation (1)
-gpgpu_clock_domains 1481.0:2962.0:1481.0:2750.0 # Clock Domain Frequencies in MhZ {<Core Clock>:<ICNT Clock>:<L2 Clock>:<DRAM Clock>}
-gpgpu_max_concurrent_kernel                    8 # maximum kernels that can run concurrently on GPU
-gpgpu_cflog_interval                    0 # Interval between each snapshot in control flow logger
-visualizer_enabled                     0 # Turn on visualizer output (1=On, 0=Off)
-visualizer_outputfile                 NULL # Specifies the output log file for visualizer
-visualizer_zlevel                      6 # Compression level of the visualizer output log (0=no comp, 9=highest)
-trace_enabled                          0 # Turn on traces
-trace_components                    none # comma seperated list of traces to enable. Complete list found in trace_streams.tup. Default none
-trace_sampling_core                    0 # The core which is printed using CORE_DPRINTF. Default 0
-trace_sampling_memory_partition                   -1 # The memory partition which is printed using MEMPART_DPRINTF. Default -1 (i.e. all)
-gddr_size                            1GB # Size of GDDR in MB/GB.(GLOBAL_HEAP_START, GLOBAL_HEAP_START + gddr_size) would be used for unmanged memory, (GLOBAL_HEAP_START + gddr_size, GLOBAL_HEAP_START + gddr_size*2) would be used for managed memory. 
-page_table_walk_latency                  100 # Average page table walk latency (in core cycle).
-eviction_policy                        0 # Select page eviction policy
-invalidate_clean                       0 # Should directly invalidate clean pages
-reserve_accessed_page_percent                    0 # Percentage of accessed pages reserved from eviction in hope that they will be accessed in next iteration.
-percentage_of_free_page_buffer                    0 # Percentage of free page buffer to trigger the page eviction.
-page_size                            4KB # GDDR page size, only 4KB/2MB avaliable.
-pcie_bandwidth                  16.0GB/s # PCI-e bandwidth per direction, in GB/s.
-enable_dma                             0 # Enable direct access to CPU memory
-multiply_dma_penalty                    2 # Oversubscription Multiplicative Penalty Factor for Adaptive DMA
-migrate_threshold                      8 # Access counter threshold for migrating the page from cpu to gpu
-sim_prof_enable                        1 # Enable gpgpu-sim profiler
-hardware_prefetch                      1 # Select gpgpu-sim hardware prefetcher
-hwprefetch_oversub                     1 # Select gpgpu-sim hardware prefetcher under over-subscription
-page_fault_latency                 66645 # Average fault latency (in core cycle).
-enable_accurate_simulation                    0 # Enable page fault functional simulation.
-enable_ptx_file_line_stats                    1 # Turn on PTX source line statistic profiling. (1 = On)
-ptx_line_stats_filename gpgpu_inst_stats.txt # Output file for PTX source line statistics.
-gpgpu_kernel_launch_latency               222150 # Kernel launch latency in cycles. Default: 0
-gpgpu_cdp_enabled                      0 # Turn on CDP
-save_embedded_ptx                      0 # saves ptx files embedded in binary as <n>.ptx
-keep                                   0 # keep intermediate files created by GPGPU-Sim when interfacing with external programs
-gpgpu_ptx_save_converted_ptxplus                    0 # Saved converted ptxplus to a file
-ptx_opcode_latency_int         4,13,4,5,145 # Opcode latencies for integers <ADD,MAX,MUL,MAD,DIV>Default 1,1,19,25,145
-ptx_opcode_latency_fp          4,13,4,5,39 # Opcode latencies for single precision floating points <ADD,MAX,MUL,MAD,DIV>Default 1,1,1,1,30
-ptx_opcode_latency_dp         8,19,8,8,330 # Opcode latencies for double precision floating points <ADD,MAX,MUL,MAD,DIV>Default 8,8,8,8,335
-ptx_opcode_initiation_int            1,2,2,2,8 # Opcode initiation intervals for integers <ADD,MAX,MUL,MAD,DIV>Default 1,1,4,4,32
-ptx_opcode_initiation_fp            1,2,1,1,4 # Opcode initiation intervals for single precision floating points <ADD,MAX,MUL,MAD,DIV>Default 1,1,1,1,5
-ptx_opcode_initiation_dp          1,2,1,1,130 # Opcode initiation intervals for double precision floating points <ADD,MAX,MUL,MAD,DIV>Default 8,8,8,8,130
-cdp_latency         7200,8000,100,12000,1600 # CDP API latency <cudaStreamCreateWithFlags, cudaGetParameterBufferV2_init_perWarp, cudaGetParameterBufferV2_perKernel, cudaLaunchDeviceV2_init_perWarp, cudaLaunchDevicV2_perKernel>Default 7200,8000,100,12000,1600
DRAM Timing Options:
nbk                                    16 # number of banks
CCD                                     2 # column to column delay
RRD                                     6 # minimal delay between activation of rows in different banks
RCD                                    12 # row to column delay
RAS                                    28 # time needed to activate row
RP                                     12 # time needed to precharge (deactivate) row
RC                                     40 # row cycle time
CDLR                                    5 # switching from write to read (changes tWTR)
WR                                     12 # last data-in to row precharge
CL                                     12 # CAS latency
WL                                      4 # Write latency
nbkgrp                                  1 # number of bank groups
CCDL                                    0 # column to column delay between accesses to different bank groups
RTPL                                    0 # read to precharge delay between accesses to different bank groups
Total number of memory sub partition = 22
addr_dec_mask[CHIP]  = 0000000000000000 	high:64 low:0
addr_dec_mask[BK]    = 0000000000007080 	high:15 low:7
addr_dec_mask[ROW]   = 000000000fff8000 	high:28 low:15
addr_dec_mask[COL]   = 0000000000000f7f 	high:12 low:0
addr_dec_mask[BURST] = 000000000000001f 	high:5 low:0
sub_partition_id_mask = 0000000000000080
GPGPU-Sim uArch: clock freqs: 1481000000.000000:2962000000.000000:1481000000.000000:2750000000.000000
GPGPU-Sim uArch: clock periods: 0.00000000067521944632:0.00000000033760972316:0.00000000067521944632:0.00000000036363636364
*** Initializing Memory Statistics ***
GPGPU-Sim uArch: interconnect node map (shaderID+MemID to icntID)
GPGPU-Sim uArch: Memory nodes ID start from index: 28
GPGPU-Sim uArch:    0   1   2   3   4   5   6
GPGPU-Sim uArch:    7   8   9  10  11  12  13
GPGPU-Sim uArch:   14  15  16  17  18  19  20
GPGPU-Sim uArch:   21  22  23  24  25  26  27
GPGPU-Sim uArch:   28  29  30  31  32  33  34
GPGPU-Sim uArch:   35  36  37  38  39  40  41
GPGPU-Sim uArch:   42  43  44  45  46  47  48
GPGPU-Sim uArch:   49
GPGPU-Sim uArch: interconnect node reverse map (icntID to shaderID+MemID)
GPGPU-Sim uArch: Memory nodes start from ID: 28
GPGPU-Sim uArch:    0   1   2   3   4   5   6
GPGPU-Sim uArch:    7   8   9  10  11  12  13
GPGPU-Sim uArch:   14  15  16  17  18  19  20
GPGPU-Sim uArch:   21  22  23  24  25  26  27
GPGPU-Sim uArch:   28  29  30  31  32  33  34
GPGPU-Sim uArch:   35  36  37  38  39  40  41
GPGPU-Sim uArch:   42  43  44  45  46  47  48
GPGPU-Sim uArch:   49
c65e6548654418f77e29b813d099aa62  /root/gpgpu-sim_UVMSmart/benchmarks/Managed/sssp/sssp
GPGPU-Sim uArch: performance model initialization complete.
GPGPU-Sim PTX: __cudaRegisterFatBinary, fat_cubin_handle = 1, filename=default
self exe links to: /root/gpgpu-sim_UVMSmart/benchmarks/Managed/sssp/sssp
Running md5sum using "md5sum /root/gpgpu-sim_UVMSmart/benchmarks/Managed/sssp/sssp "
Parsing file _cuobjdump_complete_output_u1J5d7
######### cuobjdump parser ########
## Adding new section ELF
Adding arch: sm_20
Adding identifier: default
## Adding new section ELF
Adding arch: sm_20
Adding identifier: default
## Adding new section PTX
Adding ptx filename: _cuobjdump_1.ptx
Adding arch: sm_20
Adding identifier: default
Done parsing!!!
GPGPU-Sim PTX: __cudaRegisterFunction _Z7Kernel2PKiS0_PKfPbPfS4_i : hostFun 0x0x401f7d, fat_cubin_handle = 1
GPGPU-Sim PTX: instruction assembly for function '_Z16initializeArraysPbPfS0_ii'...   done.
GPGPU-Sim PTX: finding reconvergence points for '_Z16initializeArraysPbPfS0_ii'...
GPGPU-Sim PTX: Finding dominators for '_Z16initializeArraysPbPfS0_ii'...
GPGPU-Sim PTX: Finding immediate dominators for '_Z16initializeArraysPbPfS0_ii'...
GPGPU-Sim PTX: Finding postdominators for '_Z16initializeArraysPbPfS0_ii'...
GPGPU-Sim PTX: Finding immediate postdominators for '_Z16initializeArraysPbPfS0_ii'...
GPGPU-Sim PTX: pre-decoding instructions for '_Z16initializeArraysPbPfS0_ii'...
GPGPU-Sim PTX: reconvergence points for _Z16initializeArraysPbPfS0_ii...
GPGPU-Sim PTX:  1 (potential) branch divergence @  PC=0x060 (_1.ptx:40) @%p1 bra BB0_4;
GPGPU-Sim PTX:    immediate post dominator      @  PC=0x120 (_1.ptx:71) ret;
GPGPU-Sim PTX:  2 (potential) branch divergence @  PC=0x088 (_1.ptx:46) @%p2 bra BB0_3;
GPGPU-Sim PTX:    immediate post dominator      @  PC=0x120 (_1.ptx:71) ret;
GPGPU-Sim PTX:  3 (potential) branch divergence @  PC=0x090 (_1.ptx:47) bra.uni BB0_2;
GPGPU-Sim PTX:    immediate post dominator      @  PC=0x0e0 (_1.ptx:61) mov.u16 %rs1, 0;
GPGPU-Sim PTX:  4 (potential) branch divergence @  PC=0x0d8 (_1.ptx:58) bra.uni BB0_4;
GPGPU-Sim PTX:    immediate post dominator      @  PC=0x120 (_1.ptx:71) ret;
GPGPU-Sim PTX: ... end of reconvergence points for _Z16initializeArraysPbPfS0_ii
GPGPU-Sim PTX: ... done pre-decoding instructions for '_Z16initializeArraysPbPfS0_ii'.
GPGPU-Sim PTX: instruction assembly for function '_Z7Kernel1PKiS0_PKfPbPfS4_ii'...   done.
GPGPU-Sim PTX: finding reconvergence points for '_Z7Kernel1PKiS0_PKfPbPfS4_ii'...
GPGPU-Sim PTX: Finding dominators for '_Z7Kernel1PKiS0_PKfPbPfS4_ii'...
GPGPU-Sim PTX: Finding immediate dominators for '_Z7Kernel1PKiS0_PKfPbPfS4_ii'...
GPGPU-Sim PTX: Finding postdominators for '_Z7Kernel1PKiS0_PKfPbPfS4_ii'...
GPGPU-Sim PTX: Finding immediate postdominators for '_Z7Kernel1PKiS0_PKfPbPfS4_ii'...
GPGPU-Sim PTX: pre-decoding instructions for '_Z7Kernel1PKiS0_PKfPbPfS4_ii'...
GPGPU-Sim PTX: reconvergence points for _Z7Kernel1PKiS0_PKfPbPfS4_ii...
GPGPU-Sim PTX:  1 (potential) branch divergence @  PC=0x190 (_1.ptx:106) @%p1 bra BB1_9;
GPGPU-Sim PTX:    immediate post dominator      @  PC=0x2f0 (_1.ptx:163) ret;
GPGPU-Sim PTX:  2 (potential) branch divergence @  PC=0x1c0 (_1.ptx:113) @%p2 bra BB1_9;
GPGPU-Sim PTX:    immediate post dominator      @  PC=0x2f0 (_1.ptx:163) ret;
GPGPU-Sim PTX:  3 (potential) branch divergence @  PC=0x208 (_1.ptx:123) @%p3 bra BB1_4;
GPGPU-Sim PTX:    immediate post dominator      @  PC=0x218 (_1.ptx:128) setp.ge.s32%p4, %r19, %r18;
GPGPU-Sim PTX:  4 (potential) branch divergence @  PC=0x220 (_1.ptx:129) @%p4 bra BB1_9;
GPGPU-Sim PTX:    immediate post dominator      @  PC=0x2f0 (_1.ptx:163) ret;
GPGPU-Sim PTX:  5 (potential) branch divergence @  PC=0x2d0 (_1.ptx:156) @%p5 bra BB1_7;
GPGPU-Sim PTX:    immediate post dominator      @  PC=0x2d8 (_1.ptx:158) add.s32 %r19, %r19, 1;
GPGPU-Sim PTX:  6 (potential) branch divergence @  PC=0x2e8 (_1.ptx:160) @%p6 bra BB1_6;
GPGPU-Sim PTX:    immediate post dominator      @  PC=0x2f0 (_1.ptx:163) ret;
GPGPU-Sim PTX: ... end of reconvergence points for _Z7Kernel1PKiS0_PKfPbPfS4_ii
GPGPU-Sim PTX: ... done pre-decoding instructions for '_Z7Kernel1PKiS0_PKfPbPfS4_ii'.
GPGPU-Sim PTX: instruction assembly for function '_Z7Kernel2PKiS0_PKfPbPfS4_i'...   done.
GPGPU-Sim PTX: finding reconvergence points for '_Z7Kernel2PKiS0_PKfPbPfS4_i'...
GPGPU-Sim PTX: Finding dominators for '_Z7Kernel2PKiS0_PKfPbPfS4_i'...
GPGPU-Sim PTX: Finding immediate dominators for '_Z7Kernel2PKiS0_PKfPbPfS4_i'...
GPGPU-Sim PTX: Finding postdominators for '_Z7Kernel2PKiS0_PKfPbPfS4_i'...
GPGPU-Sim PTX: Finding immediate postdominators for '_Z7Kernel2PKiS0_PKfPbPfS4_i'...
GPGPU-Sim PTX: pre-decoding instructions for '_Z7Kernel2PKiS0_PKfPbPfS4_i'...
GPGPU-Sim PTX: reconvergence points for _Z7Kernel2PKiS0_PKfPbPfS4_i...
GPGPU-Sim PTX:  1 (potential) branch divergence @  PC=0x340 (_1.ptx:193) @%p1 bra BB2_4;
GPGPU-Sim PTX:    immediate post dominator      @  PC=0x3d8 (_1.ptx:218) ret;
GPGPU-Sim PTX:  2 (potential) branch divergence @  PC=0x398 (_1.ptx:205) @%p2 bra BB2_3;
GPGPU-Sim PTX:    immediate post dominator      @  PC=0x3d0 (_1.ptx:215) st.global.f32 [%rd3], %f4;
GPGPU-Sim PTX: ... end of reconvergence points for _Z7Kernel2PKiS0_PKfPbPfS4_i
GPGPU-Sim PTX: ... done pre-decoding instructions for '_Z7Kernel2PKiS0_PKfPbPfS4_i'.
GPGPU-Sim PTX: finished parsing EMBEDDED .ptx file _1.ptx
Adding _cuobjdump_1.ptx with cubin handle 1
GPGPU-Sim PTX: extracting embedded .ptx to temporary file "_ptx_nqWpSG"
Running: cat _ptx_nqWpSG | sed 's/.version 1.5/.version 1.4/' | sed 's/, texmode_independent//' | sed 's/\(\.extern \.const\[1\] .b8 \w\+\)\[\]/\1\[1\]/' | sed 's/const\[.\]/const\[0\]/g' > _ptx2_867Kwg
GPGPU-Sim PTX: generating ptxinfo using "$CUDA_INSTALL_PATH/bin/ptxas --gpu-name=sm_20 -v _ptx2_867Kwg --output-file  /dev/null 2> _ptx_nqWpSGinfo"
GPGPU-Sim PTX: Kernel '_Z7Kernel1PKiS0_PKfPbPfS4_ii' : regs=14, lmem=0, smem=0, cmem=88
GPGPU-Sim PTX: Kernel '_Z16initializeArraysPbPfS0_ii' : regs=9, lmem=0, smem=0, cmem=64
GPGPU-Sim PTX: Kernel '_Z7Kernel2PKiS0_PKfPbPfS4_i' : regs=12, lmem=0, smem=0, cmem=84
GPGPU-Sim PTX: removing ptxinfo using "rm -f _ptx_nqWpSG _ptx2_867Kwg _ptx_nqWpSGinfo"
GPGPU-Sim PTX: loading globals with explicit initializers... 
GPGPU-Sim PTX: finished loading globals (0 bytes total).
GPGPU-Sim PTX: loading constants with explicit initializers...  done.
GPGPU-Sim PTX: __cudaRegisterFunction _Z7Kernel1PKiS0_PKfPbPfS4_ii : hostFun 0x0x401da9, fat_cubin_handle = 1
GPGPU-Sim PTX: __cudaRegisterFunction _Z16initializeArraysPbPfS0_ii : hostFun 0x0x401bc3, fat_cubin_handle = 1

GPGPU-Sim PTX: cudaLaunch for 0x0x401bc3 (mode=performance simulation) on stream 0
GPGPU-Sim PTX: pushing kernel '_Z16initializeArraysPbPfS0_ii' to stream 0, gridDim= (65536,1,1) blockDim = (16,1,1) 
GPGPU-Sim uArch: Shader 1 bind to kernel 1 '_Z16initializeArraysPbPfS0_ii'
GPGPU-Sim uArch: CTA/core = 32, limited by: cta_limit
GPGPU-Sim uArch: Shader 2 bind to kernel 1 '_Z16initializeArraysPbPfS0_ii'
GPGPU-Sim uArch: Shader 3 bind to kernel 1 '_Z16initializeArraysPbPfS0_ii'
GPGPU-Sim uArch: Shader 4 bind to kernel 1 '_Z16initializeArraysPbPfS0_ii'
GPGPU-Sim uArch: Shader 5 bind to kernel 1 '_Z16initializeArraysPbPfS0_ii'
GPGPU-Sim uArch: Shader 6 bind to kernel 1 '_Z16initializeArraysPbPfS0_ii'
GPGPU-Sim uArch: Shader 7 bind to kernel 1 '_Z16initializeArraysPbPfS0_ii'
GPGPU-Sim uArch: Shader 8 bind to kernel 1 '_Z16initializeArraysPbPfS0_ii'
GPGPU-Sim uArch: Shader 9 bind to kernel 1 '_Z16initializeArraysPbPfS0_ii'
GPGPU-Sim uArch: Shader 10 bind to kernel 1 '_Z16initializeArraysPbPfS0_ii'
GPGPU-Sim uArch: Shader 11 bind to kernel 1 '_Z16initializeArraysPbPfS0_ii'
GPGPU-Sim uArch: Shader 12 bind to kernel 1 '_Z16initializeArraysPbPfS0_ii'
GPGPU-Sim uArch: Shader 13 bind to kernel 1 '_Z16initializeArraysPbPfS0_ii'
GPGPU-Sim uArch: Shader 14 bind to kernel 1 '_Z16initializeArraysPbPfS0_ii'
GPGPU-Sim uArch: Shader 15 bind to kernel 1 '_Z16initializeArraysPbPfS0_ii'
GPGPU-Sim uArch: Shader 16 bind to kernel 1 '_Z16initializeArraysPbPfS0_ii'
GPGPU-Sim uArch: Shader 17 bind to kernel 1 '_Z16initializeArraysPbPfS0_ii'
GPGPU-Sim uArch: Shader 18 bind to kernel 1 '_Z16initializeArraysPbPfS0_ii'
GPGPU-Sim uArch: Shader 19 bind to kernel 1 '_Z16initializeArraysPbPfS0_ii'
GPGPU-Sim uArch: Shader 20 bind to kernel 1 '_Z16initializeArraysPbPfS0_ii'
GPGPU-Sim uArch: Shader 21 bind to kernel 1 '_Z16initializeArraysPbPfS0_ii'
GPGPU-Sim uArch: Shader 22 bind to kernel 1 '_Z16initializeArraysPbPfS0_ii'
GPGPU-Sim uArch: Shader 23 bind to kernel 1 '_Z16initializeArraysPbPfS0_ii'
GPGPU-Sim uArch: Shader 24 bind to kernel 1 '_Z16initializeArraysPbPfS0_ii'
GPGPU-Sim uArch: Shader 25 bind to kernel 1 '_Z16initializeArraysPbPfS0_ii'
GPGPU-Sim uArch: Shader 26 bind to kernel 1 '_Z16initializeArraysPbPfS0_ii'
GPGPU-Sim uArch: Shader 27 bind to kernel 1 '_Z16initializeArraysPbPfS0_ii'
GPGPU-Sim uArch: Shader 0 bind to kernel 1 '_Z16initializeArraysPbPfS0_ii'
GPGPU-Sim uArch: Shader 5 bind to kernel 1 '_Z16initializeArraysPbPfS0_ii'
GPGPU-Sim uArch: Shader 7 bind to kernel 1 '_Z16initializeArraysPbPfS0_ii'
GPGPU-Sim uArch: Shader 16 bind to kernel 1 '_Z16initializeArraysPbPfS0_ii'
GPGPU-Sim uArch: Shader 21 bind to kernel 1 '_Z16initializeArraysPbPfS0_ii'
GPGPU-Sim uArch: Shader 26 bind to kernel 1 '_Z16initializeArraysPbPfS0_ii'
GPGPU-Sim uArch: Shader 27 bind to kernel 1 '_Z16initializeArraysPbPfS0_ii'
GPGPU-Sim uArch: Shader 0 bind to kernel 1 '_Z16initializeArraysPbPfS0_ii'
GPGPU-Sim uArch: Shader 1 bind to kernel 1 '_Z16initializeArraysPbPfS0_ii'
GPGPU-Sim uArch: Shader 2 bind to kernel 1 '_Z16initializeArraysPbPfS0_ii'
GPGPU-Sim uArch: Shader 3 bind to kernel 1 '_Z16initializeArraysPbPfS0_ii'
GPGPU-Sim uArch: Shader 4 bind to kernel 1 '_Z16initializeArraysPbPfS0_ii'
GPGPU-Sim uArch: Shader 5 bind to kernel 1 '_Z16initializeArraysPbPfS0_ii'
GPGPU-Sim uArch: Shader 6 bind to kernel 1 '_Z16initializeArraysPbPfS0_ii'
GPGPU-Sim uArch: Shader 7 bind to kernel 1 '_Z16initializeArraysPbPfS0_ii'
GPGPU-Sim uArch: Shader 8 bind to kernel 1 '_Z16initializeArraysPbPfS0_ii'
GPGPU-Sim uArch: Shader 9 bind to kernel 1 '_Z16initializeArraysPbPfS0_ii'
GPGPU-Sim uArch: Shader 10 bind to kernel 1 '_Z16initializeArraysPbPfS0_ii'
GPGPU-Sim uArch: Shader 11 bind to kernel 1 '_Z16initializeArraysPbPfS0_ii'
GPGPU-Sim uArch: Shader 12 bind to kernel 1 '_Z16initializeArraysPbPfS0_ii'
GPGPU-Sim uArch: Shader 13 bind to kernel 1 '_Z16initializeArraysPbPfS0_ii'
GPGPU-Sim uArch: Shader 14 bind to kernel 1 '_Z16initializeArraysPbPfS0_ii'
GPGPU-Sim uArch: Shader 15 bind to kernel 1 '_Z16initializeArraysPbPfS0_ii'
GPGPU-Sim uArch: Shader 16 bind to kernel 1 '_Z16initializeArraysPbPfS0_ii'
GPGPU-Sim uArch: Shader 17 bind to kernel 1 '_Z16initializeArraysPbPfS0_ii'
GPGPU-Sim uArch: Shader 18 bind to kernel 1 '_Z16initializeArraysPbPfS0_ii'
GPGPU-Sim uArch: Shader 19 bind to kernel 1 '_Z16initializeArraysPbPfS0_ii'
GPGPU-Sim uArch: Shader 20 bind to kernel 1 '_Z16initializeArraysPbPfS0_ii'
GPGPU-Sim uArch: Shader 21 bind to kernel 1 '_Z16initializeArraysPbPfS0_ii'
GPGPU-Sim uArch: Shader 22 bind to kernel 1 '_Z16initializeArraysPbPfS0_ii'
GPGPU-Sim uArch: Shader 23 bind to kernel 1 '_Z16initializeArraysPbPfS0_ii'
GPGPU-Sim uArch: Shader 24 bind to kernel 1 '_Z16initializeArraysPbPfS0_ii'
GPGPU-Sim uArch: Shader 25 bind to kernel 1 '_Z16initializeArraysPbPfS0_ii'
GPGPU-Sim uArch: Shader 17 bind to kernel 1 '_Z16initializeArraysPbPfS0_ii'
Destroy streams for kernel 1: size 0
kernel_name = _Z16initializeArraysPbPfS0_ii 
kernel_launch_uid = 1 
gpu_sim_cycle = 1111402
gpu_sim_insn = 27262977
gpu_ipc =      24.5303
gpu_tot_sim_cycle = 1333552
gpu_tot_sim_insn = 27262977
gpu_tot_ipc =      20.4439
gpu_tot_issued_cta = 65536
max_total_param_size = 0
gpu_stall_dramfull = 343311
gpu_stall_icnt2sh    = 453
partiton_reqs_in_parallel = 24107533
partiton_reqs_in_parallel_total    = 0
partiton_level_parallism =      21.6911
partiton_level_parallism_total  =      18.0777
partiton_reqs_in_parallel_util = 24107533
partiton_reqs_in_parallel_util_total    = 0
gpu_sim_cycle_parition_util = 1110683
gpu_tot_sim_cycle_parition_util    = 0
partiton_level_parallism_util =      21.7051
partiton_level_parallism_util_total  =      21.7051
partiton_replys_in_parallel = 196723
partiton_replys_in_parallel_total    = 0
L2_BW  =      16.7772 GB/Sec
L2_BW_total  =      13.9824 GB/Sec
gpu_total_sim_rate=31122

========= Core cache stats =========
L1I_cache:
	L1I_total_cache_accesses = 983046
	L1I_total_cache_misses = 2688
	L1I_total_cache_miss_rate = 0.0027
	L1I_total_cache_pending_hits = 0
	L1I_total_cache_reservation_fails = 0
L1D_cache:
	L1D_cache_core[0]: Access = 0, Miss = 0, Miss_rate = -nan, Pending_hits = 0, Reservation_fails = 0
	L1D_cache_core[1]: Access = 0, Miss = 0, Miss_rate = -nan, Pending_hits = 0, Reservation_fails = 0
	L1D_cache_core[2]: Access = 0, Miss = 0, Miss_rate = -nan, Pending_hits = 0, Reservation_fails = 0
	L1D_cache_core[3]: Access = 0, Miss = 0, Miss_rate = -nan, Pending_hits = 0, Reservation_fails = 0
	L1D_cache_core[4]: Access = 0, Miss = 0, Miss_rate = -nan, Pending_hits = 0, Reservation_fails = 0
	L1D_cache_core[5]: Access = 0, Miss = 0, Miss_rate = -nan, Pending_hits = 0, Reservation_fails = 0
	L1D_cache_core[6]: Access = 0, Miss = 0, Miss_rate = -nan, Pending_hits = 0, Reservation_fails = 0
	L1D_cache_core[7]: Access = 0, Miss = 0, Miss_rate = -nan, Pending_hits = 0, Reservation_fails = 0
	L1D_cache_core[8]: Access = 0, Miss = 0, Miss_rate = -nan, Pending_hits = 0, Reservation_fails = 0
	L1D_cache_core[9]: Access = 0, Miss = 0, Miss_rate = -nan, Pending_hits = 0, Reservation_fails = 0
	L1D_cache_core[10]: Access = 0, Miss = 0, Miss_rate = -nan, Pending_hits = 0, Reservation_fails = 0
	L1D_cache_core[11]: Access = 0, Miss = 0, Miss_rate = -nan, Pending_hits = 0, Reservation_fails = 0
	L1D_cache_core[12]: Access = 0, Miss = 0, Miss_rate = -nan, Pending_hits = 0, Reservation_fails = 0
	L1D_cache_core[13]: Access = 0, Miss = 0, Miss_rate = -nan, Pending_hits = 0, Reservation_fails = 0
	L1D_cache_core[14]: Access = 0, Miss = 0, Miss_rate = -nan, Pending_hits = 0, Reservation_fails = 0
	L1D_cache_core[15]: Access = 0, Miss = 0, Miss_rate = -nan, Pending_hits = 0, Reservation_fails = 0
	L1D_cache_core[16]: Access = 0, Miss = 0, Miss_rate = -nan, Pending_hits = 0, Reservation_fails = 0
	L1D_cache_core[17]: Access = 0, Miss = 0, Miss_rate = -nan, Pending_hits = 0, Reservation_fails = 0
	L1D_cache_core[18]: Access = 0, Miss = 0, Miss_rate = -nan, Pending_hits = 0, Reservation_fails = 0
	L1D_cache_core[19]: Access = 0, Miss = 0, Miss_rate = -nan, Pending_hits = 0, Reservation_fails = 0
	L1D_cache_core[20]: Access = 0, Miss = 0, Miss_rate = -nan, Pending_hits = 0, Reservation_fails = 0
	L1D_cache_core[21]: Access = 0, Miss = 0, Miss_rate = -nan, Pending_hits = 0, Reservation_fails = 0
	L1D_cache_core[22]: Access = 0, Miss = 0, Miss_rate = -nan, Pending_hits = 0, Reservation_fails = 0
	L1D_cache_core[23]: Access = 0, Miss = 0, Miss_rate = -nan, Pending_hits = 0, Reservation_fails = 0
	L1D_cache_core[24]: Access = 0, Miss = 0, Miss_rate = -nan, Pending_hits = 0, Reservation_fails = 0
	L1D_cache_core[25]: Access = 0, Miss = 0, Miss_rate = -nan, Pending_hits = 0, Reservation_fails = 0
	L1D_cache_core[26]: Access = 0, Miss = 0, Miss_rate = -nan, Pending_hits = 0, Reservation_fails = 0
	L1D_cache_core[27]: Access = 0, Miss = 0, Miss_rate = -nan, Pending_hits = 0, Reservation_fails = 0
	L1D_total_cache_accesses = 0
	L1D_total_cache_misses = 0
	L1D_total_cache_pending_hits = 0
	L1D_total_cache_reservation_fails = 0
	L1D_cache_data_port_util = 0.000
	L1D_cache_fill_port_util = 0.000
L1C_cache:
	L1C_total_cache_accesses = 327680
	L1C_total_cache_misses = 1792
	L1C_total_cache_miss_rate = 0.0055
	L1C_total_cache_pending_hits = 0
	L1C_total_cache_reservation_fails = 4886
L1T_cache:
	L1T_total_cache_accesses = 0
	L1T_total_cache_misses = 0
	L1T_total_cache_pending_hits = 0
	L1T_total_cache_reservation_fails = 0

Total_core_cache_stats:
	Total_core_cache_stats_breakdown[GLOBAL_ACC_R][HIT] = 0
	Total_core_cache_stats_breakdown[GLOBAL_ACC_R][HIT_RESERVED] = 0
	Total_core_cache_stats_breakdown[GLOBAL_ACC_R][MISS] = 0
	Total_core_cache_stats_breakdown[GLOBAL_ACC_R][RESERVATION_FAIL] = 0
	Total_core_cache_stats_breakdown[LOCAL_ACC_R][HIT] = 0
	Total_core_cache_stats_breakdown[LOCAL_ACC_R][HIT_RESERVED] = 0
	Total_core_cache_stats_breakdown[LOCAL_ACC_R][MISS] = 0
	Total_core_cache_stats_breakdown[LOCAL_ACC_R][RESERVATION_FAIL] = 0
	Total_core_cache_stats_breakdown[CONST_ACC_R][HIT] = 325888
	Total_core_cache_stats_breakdown[CONST_ACC_R][HIT_RESERVED] = 0
	Total_core_cache_stats_breakdown[CONST_ACC_R][MISS] = 1792
	Total_core_cache_stats_breakdown[CONST_ACC_R][RESERVATION_FAIL] = 4886
	Total_core_cache_stats_breakdown[TEXTURE_ACC_R][HIT] = 0
	Total_core_cache_stats_breakdown[TEXTURE_ACC_R][HIT_RESERVED] = 0
	Total_core_cache_stats_breakdown[TEXTURE_ACC_R][MISS] = 0
	Total_core_cache_stats_breakdown[TEXTURE_ACC_R][RESERVATION_FAIL] = 0
	Total_core_cache_stats_breakdown[GLOBAL_ACC_W][HIT] = 0
	Total_core_cache_stats_breakdown[GLOBAL_ACC_W][HIT_RESERVED] = 0
	Total_core_cache_stats_breakdown[GLOBAL_ACC_W][MISS] = 0
	Total_core_cache_stats_breakdown[GLOBAL_ACC_W][RESERVATION_FAIL] = 0
	Total_core_cache_stats_breakdown[LOCAL_ACC_W][HIT] = 0
	Total_core_cache_stats_breakdown[LOCAL_ACC_W][HIT_RESERVED] = 0
	Total_core_cache_stats_breakdown[LOCAL_ACC_W][MISS] = 0
	Total_core_cache_stats_breakdown[LOCAL_ACC_W][RESERVATION_FAIL] = 0
	Total_core_cache_stats_breakdown[L1_WRBK_ACC][HIT] = 0
	Total_core_cache_stats_breakdown[L1_WRBK_ACC][HIT_RESERVED] = 0
	Total_core_cache_stats_breakdown[L1_WRBK_ACC][MISS] = 0
	Total_core_cache_stats_breakdown[L1_WRBK_ACC][RESERVATION_FAIL] = 0
	Total_core_cache_stats_breakdown[L2_WRBK_ACC][HIT] = 0
	Total_core_cache_stats_breakdown[L2_WRBK_ACC][HIT_RESERVED] = 0
	Total_core_cache_stats_breakdown[L2_WRBK_ACC][MISS] = 0
	Total_core_cache_stats_breakdown[L2_WRBK_ACC][RESERVATION_FAIL] = 0
	Total_core_cache_stats_breakdown[INST_ACC_R][HIT] = 980358
	Total_core_cache_stats_breakdown[INST_ACC_R][HIT_RESERVED] = 0
	Total_core_cache_stats_breakdown[INST_ACC_R][MISS] = 2688
	Total_core_cache_stats_breakdown[INST_ACC_R][RESERVATION_FAIL] = 0
	Total_core_cache_stats_breakdown[L1_WR_ALLOC_R][HIT] = 0
	Total_core_cache_stats_breakdown[L1_WR_ALLOC_R][HIT_RESERVED] = 0
	Total_core_cache_stats_breakdown[L1_WR_ALLOC_R][MISS] = 0
	Total_core_cache_stats_breakdown[L1_WR_ALLOC_R][RESERVATION_FAIL] = 0
	Total_core_cache_stats_breakdown[L2_WR_ALLOC_R][HIT] = 0
	Total_core_cache_stats_breakdown[L2_WR_ALLOC_R][HIT_RESERVED] = 0
	Total_core_cache_stats_breakdown[L2_WR_ALLOC_R][MISS] = 0
	Total_core_cache_stats_breakdown[L2_WR_ALLOC_R][RESERVATION_FAIL] = 0
	Total_core_cache_stats_breakdown[CONST_ACC_R][TOTAL_ACCESS] = 327680
	Total_core_cache_stats_breakdown[INST_ACC_R][TOTAL_ACCESS] = 983046
Shader 0 warp_id issue ditsribution:
warp_id:
0, 1, 2, 3, 4, 5, 6, 7, 8, 9, 10, 11, 12, 13, 14, 15, 16, 17, 18, 19, 20, 21, 22, 23, 24, 25, 26, 27, 28, 29, 30, 31, 
distro:
2520, 2392, 2358, 2358, 2423, 2392, 2488, 2361, 2421, 2355, 2393, 2328, 2425, 2300, 2361, 2262, 2456, 2267, 2325, 2229, 2361, 2327, 2325, 2234, 2263, 2267, 2359, 2235, 2357, 2201, 2326, 2167, 
gpgpu_n_tot_thrd_icount = 58720544
gpgpu_n_tot_w_icount = 1835017
gpgpu_n_stall_shd_mem = 433566
gpgpu_n_mem_read_local = 0
gpgpu_n_mem_write_local = 0
gpgpu_n_mem_read_global = 0
gpgpu_n_mem_write_global = 196611
gpgpu_n_mem_texture = 0
gpgpu_n_mem_const = 28
gpgpu_n_load_insn  = 0
gpgpu_n_store_insn = 3145728
gpgpu_n_shmem_insn = 0
gpgpu_n_tex_insn = 0
gpgpu_n_const_mem_insn = 0
gpgpu_n_param_mem_insn = 5242880
gpgpu_n_shmem_bkconflict = 0
gpgpu_n_cache_bkconflict = 0
gpgpu_n_intrawarp_mshr_merge = 0
gpgpu_n_cmem_portconflict = 4886
gpgpu_stall_shd_mem[c_mem][bk_conf] = 4886
gpgpu_stall_shd_mem[c_mem][mshr_rc] = 0
gpgpu_stall_shd_mem[c_mem][icnt_rc] = 0
gpgpu_stall_shd_mem[c_mem][data_port_stall] = 0
gpgpu_stall_shd_mem[t_mem][mshr_rc] = 0
gpgpu_stall_shd_mem[t_mem][icnt_rc] = 0
gpgpu_stall_shd_mem[t_mem][data_port_stall] = 0
gpgpu_stall_shd_mem[s_mem][bk_conf] = 0
gpgpu_stall_shd_mem[gl_mem][bk_conf] = 0
gpgpu_stall_shd_mem[gl_mem][coal_stall] = 196588
gpgpu_stall_shd_mem[gl_mem][data_port_stall] = 0
gpgpu_stall_shd_mem[g_mem_ld][mshr_rc] = 0
gpgpu_stall_shd_mem[g_mem_ld][icnt_rc] = 232092
gpgpu_stall_shd_mem[g_mem_ld][wb_icnt_rc] = 0
gpgpu_stall_shd_mem[g_mem_ld][wb_rsrv_fail] = 0
gpgpu_stall_shd_mem[g_mem_st][mshr_rc] = 0
gpgpu_stall_shd_mem[g_mem_st][icnt_rc] = 0
gpgpu_stall_shd_mem[g_mem_st][wb_icnt_rc] = 0
gpgpu_stall_shd_mem[g_mem_st][wb_rsrv_fail] = 0
gpgpu_stall_shd_mem[l_mem_ld][mshr_rc] = 0
gpgpu_stall_shd_mem[l_mem_ld][icnt_rc] = 0
gpgpu_stall_shd_mem[l_mem_ld][wb_icnt_rc] = 0
gpgpu_stall_shd_mem[l_mem_ld][wb_rsrv_fail] = 0
gpgpu_stall_shd_mem[l_mem_st][mshr_rc] = 0
gpgpu_stall_shd_mem[l_mem_st][icnt_rc] = 0
gpgpu_stall_shd_mem[l_mem_ld][wb_icnt_rc] = 0
gpgpu_stall_shd_mem[l_mem_ld][wb_rsrv_fail] = 0
gpu_reg_bank_conflict_stalls = 0
Warp Occupancy Distribution:
Stall:223324	W0_Idle:59214129	W0_Scoreboard:1217177	W1:9	W2:0	W3:0	W4:0	W5:0	W6:0	W7:0	W8:0	W9:0	W10:0	W11:0	W12:0	W13:0	W14:0	W15:9	W16:1834999	W17:0	W18:0	W19:0	W20:0	W21:0	W22:0	W23:0	W24:0	W25:0	W26:0	W27:0	W28:0	W29:0	W30:0	W31:0	W32:0
traffic_breakdown_coretomem[CONST_ACC_R] = 224 {8:28,}
traffic_breakdown_coretomem[GLOBAL_ACC_W] = 12058744 {40:65539,72:131072,}
traffic_breakdown_coretomem[INST_ACC_R] = 672 {8:84,}
traffic_breakdown_memtocore[CONST_ACC_R] = 2016 {72:28,}
traffic_breakdown_memtocore[GLOBAL_ACC_W] = 1572888 {8:196611,}
traffic_breakdown_memtocore[INST_ACC_R] = 11424 {136:84,}
maxmrqlatency = 1300 
maxdqlatency = 0 
maxmflatency = 247711 
averagemflatency = 2075 
max_icnt2mem_latency = 247419 
max_icnt2sh_latency = 1333551 
mrq_lat_table:20695 	2424 	3686 	9232 	16037 	27939 	41569 	71776 	68074 	7947 	85 	0 	0 	0 	0 	0 	0 	0 	0 	0 	0 	0 	0 	0 	0 	0 	0 	0 	0 	0 	0 	0 	
dq_lat_table:0 	0 	0 	0 	0 	0 	0 	0 	0 	0 	0 	0 	0 	0 	0 	0 	0 	0 	0 	0 	0 	0 	0 	0 	0 	0 	0 	0 	0 	0 	0 	0 	
mf_lat_table:0 	0 	0 	0 	0 	0 	0 	4861 	42815 	130898 	11479 	768 	0 	1754 	1796 	903 	1112 	253 	0 	0 	0 	0 	0 	0 	0 	0 	0 	0 	0 	0 	0 	0 	
icnt2mem_lat_table:0 	0 	35313 	8886 	7605 	4853 	74643 	42239 	16109 	489 	0 	768 	0 	1754 	1796 	903 	1112 	253 	0 	0 	0 	0 	0 	0 	
icnt2sh_lat_table:0 	0 	3 	25 	0 	0 	0 	0 	0 	0 	0 	0 	0 	0 	0 	0 	0 	3841 	45539 	73891 	73340 	0 	0 	0 	
mf_lat_pw_table:0 	0 	0 	0 	0 	0 	0 	1 	10 	137 	0 	16 	1 	15 	5 	11 	7 	2 	0 	0 	0 	0 	0 	0 	0 	0 	0 	0 	0 	0 	0 	0 	
maximum concurrent accesses to same row:
dram[0]:       114       114        91       101        92        96        80        89        94       100       144       144        63        63        64       105 
dram[1]:       116       115        62        91       117       135        80        81        79       100       144       144        63        99       102        90 
dram[2]:       117       115        62        94        99        90        80        75        93        96       144       144        63        63        69       108 
dram[3]:       115       116        76       100       126       126        80        75        88        91       144       144        63        98        92       100 
dram[4]:       114       114        63        60       133        94        81        80        93        96       144       144        98        63        64       102 
dram[5]:       108       107        63       100       135        90        76        81        87        96       144       144        97        63        69        91 
dram[6]:       106       105       102        63       129       103        81        80        90        93       144       144        63        63        60        73 
dram[7]:       108       108       101        62       101        94        77        77        91        92       144       144       100        63        96       108 
dram[8]:       107       107       105        58        99       104        72        86        82        89       144       143        73        90        63        92 
dram[9]:       117       107        70       101       101       102        72        72        88        96       144       144        72        72        65        64 
dram[10]:       102       115       100        99       100       100        70        72        89        93       144       144        72        72        65        95 
maximum service time to same row:
dram[0]:    250919    250892    251008    250801    250842    251215    251029    250851    249288    249272    249254    249239    250971    249306    251226    251110 
dram[1]:    250893    250996    250914    250922    251216    251243    250982    251095    249274    249303    249328    249306    250951    250927    251129    251170 
dram[2]:    250928    251120    251065    250972    251091    251163    250990    251002    249086    249224    249226    249320    249392    250889    251148    251162 
dram[3]:    250997    251090    250891    250980    251061    251131    250955    250998    249175    249250    249378    249319    250396    249348    251119    251160 
dram[4]:    251014    250920    250930    250839    250896    250937    250950    250984    249240    249241    249235    249268    249337    250919    251171    251140 
dram[5]:    251069    250944    250970    250958    250948    250945    250996    250958    249242    249261    249328    249355    249731    250853    251172    251139 
dram[6]:    251050    251083    250941    251083    251135    250893    250879    250920    249273    249265    249216    249332    250506    249762    251012    251180 
dram[7]:    250967    251060    251038    251004    250841    251178    251005    250915    249205    248392    249320    249343    249434    249770    251118    251163 
dram[8]:    250933    251031    251042    251035    250977    251152    251055    250941    249234    249291    249377    249416    249358    250853    251115    251148 
dram[9]:    251112    250827    250992    250729    251150    250913    250950    250884    249200    249214    249369    249256    249400    249699    251119    250973 
dram[10]:    250946    250991    251030    251003    250935    250929    250980    250943    249260    249304    249311    249323    250841    249677    251104    251079 
average row accesses per activate:
dram[0]: 47.848484 40.410255 30.529411 33.847828 38.174999 40.131580 37.365852 34.022221 38.250000 40.394737 52.275864 52.103447 42.764706 40.333332 35.659092 39.150002 
dram[1]: 44.885715 46.470589 31.755102 36.255814 40.342106 41.432434 35.511627 33.955555 36.452381 38.349998 50.233334 50.166668 42.794117 50.068966 37.261906 35.568180 
dram[2]: 42.621620 40.179485 31.795918 33.847828 38.275002 38.099998 34.066666 36.380951 39.384617 39.256409 45.636364 47.093750 40.416668 41.514286 34.666668 37.309525 
dram[3]: 42.675674 36.627907 31.755102 34.488888 40.210526 41.270271 34.772728 36.428570 39.230770 40.315788 53.571430 50.200001 40.388889 41.485714 38.170731 35.590908 
dram[4]: 46.441177 43.694443 34.511112 31.755102 38.349998 37.365852 38.150002 32.595745 43.799999 40.368420 48.354839 53.678570 41.457142 42.794117 35.727272 33.446808 
dram[5]: 39.325001 39.400002 28.685184 32.416668 41.324326 35.604652 31.265306 34.840908 41.378380 40.289474 50.166668 47.062500 42.735294 41.428570 36.511627 35.636364 
dram[6]: 40.256409 38.512196 29.903847 33.695652 40.157894 38.200001 33.108696 35.674419 42.611111 41.297298 48.451614 53.642857 40.277779 40.333332 35.681820 35.681820 
dram[7]: 41.578949 41.526318 34.599998 33.021278 39.051281 41.351353 31.812500 31.204082 40.263157 40.342106 51.758621 45.606060 45.406250 38.289474 37.380951 34.844444 
dram[8]: 40.487179 36.627907 36.162792 33.782608 38.075001 42.555557 28.203703 36.261906 41.162163 41.351353 53.321430 49.799999 39.594593 38.447369 36.534885 37.285713 
dram[9]: 41.605263 41.421051 29.339622 33.804348 39.256409 41.459461 33.326088 31.163265 42.666668 41.513512 53.571430 50.000000 39.567566 37.512821 37.404762 33.340427 
dram[10]: 36.534885 46.558823 34.599998 35.295456 40.184212 37.317074 32.510639 31.224489 38.325001 38.299999 50.200001 50.133335 41.771427 43.029411 35.681820 38.292683 
average row locality = 269464/6960 = 38.716091
number of total memory accesses made:
dram[0]:         0         0         0         0         0         0         0         0         0         0         0         0         0         0         0         0 
dram[1]:         0         0         0         0         0         0         0         0         0         0         0         0         0         0         0         0 
dram[2]:         0         0         0         0         0         0         0         0         0         0         0         0         0         0         0         0 
dram[3]:         0         0         0         0         0         0         0         0         0         0         0         0         0         0         0         0 
dram[4]:         0         0         0         0         0         0         0         0         0         0         0         0         0         0         0         0 
dram[5]:         0         0         0         0         0         0         0         0         0         0         0         0         0         0         0         0 
dram[6]:         0         0         0         0         0         0         0         0         0         0         0         0         0         0         0         0 
dram[7]:         0         0         0         0         0         0         0         0         0         0         0         0         0         0         0         0 
dram[8]:         0         0         0         0         0         0         0         0         0         0         0         0         0         0         0         0 
dram[9]:         0         0         0         0         0         0         0         0         0         0         0         0         0         0         0         0 
dram[10]:         0         0         0         0         0         0         0         0         0         0         0         0         0         0         0         0 
total accesses: 0
min_bank_accesses = 0!
min_chip_accesses = 0!
number of total read accesses:
dram[0]:       433       432       424       424       416       416       416       416       416       416       414       414       407       407       427       427 
dram[1]:       432       432       424       424       416       416       416       416       416       416       413       413       407       407       427       427 
dram[2]:       432       432       424       424       416       416       416       416       416       416       413       413       407       407       427       427 
dram[3]:       432       432       423       423       416       416       416       416       416       416       413       413       407       407       427       427 
dram[4]:       432       432       423       423       416       416       416       416       416       416       413       413       407       407       429       429 
dram[5]:       432       432       423       423       416       416       416       416       416       416       413       413       407       407       429       428 
dram[6]:       432       432       423       423       416       416       416       416       416       416       413       413       407       407       428       428 
dram[7]:       432       432       423       423       416       416       416       416       416       416       413       413       407       407       428       428 
dram[8]:       432       432       423       423       416       416       416       416       416       416       413       413       408       408       428       428 
dram[9]:       432       432       423       423       416       416       416       416       416       416       413       413       408       408       428       428 
dram[10]:       432       432       423       423       416       416       416       416       416       416       413       413       408       408       428       428 
total reads: 73732
bank skew: 433/407 = 1.06
chip skew: 6705/6700 = 1.00
number of total write accesses:
dram[0]:      1146      1144      1133      1133      1111      1109      1116      1115      1114      1119      1102      1097      1047      1045      1142      1139 
dram[1]:      1139      1148      1132      1135      1117      1117      1111      1112      1115      1118      1094      1092      1048      1045      1138      1138 
dram[2]:      1145      1135      1134      1133      1115      1108      1117      1112      1120      1115      1093      1094      1048      1046      1133      1140 
dram[3]:      1147      1143      1133      1129      1112      1111      1114      1114      1114      1116      1087      1093      1047      1045      1138      1139 
dram[4]:      1147      1141      1130      1133      1118      1116      1110      1116      1117      1118      1086      1090      1044      1048      1143      1143 
dram[5]:      1141      1144      1126      1133      1113      1115      1116      1117      1115      1115      1092      1093      1046      1043      1141      1140 
dram[6]:      1138      1147      1132      1127      1110      1112      1107      1118      1118      1112      1089      1089      1043      1045      1142      1142 
dram[7]:      1148      1146      1134      1129      1107      1114      1111      1113      1114      1117      1088      1092      1046      1048      1142      1140 
dram[8]:      1147      1143      1132      1131      1107      1116      1107      1107      1107      1114      1080      1081      1057      1053      1143      1138 
dram[9]:      1149      1142      1132      1132      1115      1118      1117      1111      1120      1120      1087      1087      1056      1055      1143      1139 
dram[10]:      1139      1151      1134      1130      1111      1114      1112      1114      1117      1116      1093      1091      1054      1055      1142      1142 
total reads: 195732
bank skew: 1151/1043 = 1.10
chip skew: 17823/17763 = 1.00
average mf latency per bank:
dram[0]:       1720      1728       739       757      2426      2440      1963      1991       880       898      1750      1751      1611      1619       868       886
dram[1]:       1774      1776       751       758      2432      2400      1981      1985       892       866      1812      1809      1596      1599       881       885
dram[2]:       1764      1781       742       745      2342      2353      2136      2142       863       866      1767      1777      1831      1842       881       876
dram[3]:       1767      1771       738       771      2321      2318      2143      2053       888       886      1784      1785      1823      1830       884       882
dram[4]:       1774      1767       763       750      2541      2534      2067      2062       891       872      1794      1771      1747      1486       919       903
dram[5]:       1768      1769       746       753      2544      2533      2056      2058       883       888      1616      1613      1489      1489       905       924
dram[6]:       1761      1759       747       750      2564      2554      2066      2055       877       876      1606      1613      1480      1481       910       900
dram[7]:       1811      1811       745       744      2571      2554      2266      2259       886       873      1625      1582      1480      1492       912       896
dram[8]:       1786      1624       803       802      2551      2538      2208      2219       863       860      1569      1559      1556      1555       834       833
dram[9]:       1633      1639       799       819      2546      2552      2066      1920       913       914      1574      1567      1569      1561       889       881
dram[10]:       1635      1627       805       724      2444      2440      1906      1909       905       897      1763      1768      1556      1560       878       884
maximum mf latency per bank:
dram[0]:     127177    127184     63711     63730    247678    247651    247680    247633     22051     22050    124032    124017    127110    127111     36947     36930
dram[1]:     127158    127202     63722     63702    247658    247650    247618    247591     22102     22042    124031    123994    127103    127120     36915     36898
dram[2]:     127171    127210     63703     63731    247672    247652    247626    247677     22004     22003    123970    124023    127174    127187     36911     36944
dram[3]:     127194    127167     63719     63697    247681    247680    247587    247607     22021     22107    123984    124021    127175    127163     36925     36930
dram[4]:     127164    127173     63690     63721    247683    247711    247602    247612     22097     22091    123999    123980    127151    127166     36924     36903
dram[5]:     127192    127188     63704     63689    247698    247671    247600    247592     22081     22077    123996    123955    127140    127157     36882     36902
dram[6]:     127193    127220     63682     63684    247686    247674    247577    247600     22076     22049    124005    123948    127155    127132     36918     36944
dram[7]:     127188    127197     63675     63692    247652    247702    247625    247587     22038     22059    123978    123968    127122    127158     36927     36897
dram[8]:     127214    127203     63731     63761    247671    247695    247610    247660     22102     22049    123990    123952    127144    127151     36894     36892
dram[9]:     127192    127179     63738     63735    247678    247689    247650    247656     22065     22063    124002    124003    127123    127149     36925     36926
dram[10]:     127188    127181     63724     63736    247676    247632    247636    247628     22056     22141    124004    124031    127133    127116     36926     36927
Memory Partition 0: 
Cache L2_bank_000:
MSHR contents

Cache L2_bank_001:
MSHR contents

In Dram Latency Queue (total = 0): 
DRAM[0]: 16 bks, busW=4 BL=8 CL=12, tRRD=2 tCCD=6, tRCD=12 tRAS=28 tRP=12 tRC=40
n_cmd=2063709 n_nop=2005745 n_act=624 n_pre=608 n_req=24517 n_rd=26820 n_write=29912 bw_util=0.05498
n_activity=140156 dram_eff=0.8096
bk0: 1732a 2008861i bk1: 1728a 2007917i bk2: 1696a 2010549i bk3: 1696a 2010195i bk4: 1664a 2011077i bk5: 1664a 2011287i bk6: 1664a 2010202i bk7: 1664a 2009814i bk8: 1664a 2011186i bk9: 1664a 2010295i bk10: 1656a 2010267i bk11: 1656a 2010522i bk12: 1628a 2012678i bk13: 1628a 2012121i bk14: 1708a 2009187i bk15: 1708a 2009450i 
dram_util_bins: 0 0 0 0 0 0 0 0 0 0
dram_eff_bins: 0 0 0 0 0 0 0 0 0 0
mrqq: max=64 avg=3.9253
Memory Partition 1: 
Cache L2_bank_002:
MSHR contents

Cache L2_bank_003:
MSHR contents

In Dram Latency Queue (total = 0): 
DRAM[1]: 16 bks, busW=4 BL=8 CL=12, tRRD=2 tCCD=6, tRCD=12 tRAS=28 tRP=12 tRC=40
n_cmd=2063709 n_nop=2005842 n_act=615 n_pre=599 n_req=24501 n_rd=26808 n_write=29845 bw_util=0.0549
n_activity=139932 dram_eff=0.8097
bk0: 1728a 2009152i bk1: 1728a 2007848i bk2: 1696a 2010773i bk3: 1696a 2010181i bk4: 1664a 2011416i bk5: 1664a 2010732i bk6: 1664a 2009819i bk7: 1664a 2009537i bk8: 1664a 2012005i bk9: 1664a 2010805i bk10: 1652a 2011448i bk11: 1652a 2010977i bk12: 1628a 2012478i bk13: 1628a 2012401i bk14: 1708a 2009469i bk15: 1708a 2008446i 
dram_util_bins: 0 0 0 0 0 0 0 0 0 0
dram_eff_bins: 0 0 0 0 0 0 0 0 0 0
mrqq: max=64 avg=3.92203
Memory Partition 2: 
Cache L2_bank_004:
MSHR contents

Cache L2_bank_005:
MSHR contents

In Dram Latency Queue (total = 0): 
DRAM[2]: 16 bks, busW=4 BL=8 CL=12, tRRD=2 tCCD=6, tRCD=12 tRAS=28 tRP=12 tRC=40
n_cmd=2063709 n_nop=2005749 n_act=639 n_pre=623 n_req=24490 n_rd=26808 n_write=29890 bw_util=0.05495
n_activity=139918 dram_eff=0.8104
bk0: 1728a 2007647i bk1: 1728a 2007420i bk2: 1696a 2010189i bk3: 1696a 2010053i bk4: 1664a 2011092i bk5: 1664a 2010749i bk6: 1664a 2009982i bk7: 1664a 2009614i bk8: 1664a 2010465i bk9: 1664a 2010815i bk10: 1652a 2011510i bk11: 1652a 2010961i bk12: 1628a 2013106i bk13: 1628a 2012378i bk14: 1708a 2009422i bk15: 1708a 2009151i 
dram_util_bins: 0 0 0 0 0 0 0 0 0 0
dram_eff_bins: 0 0 0 0 0 0 0 0 0 0
mrqq: max=64 avg=3.91147
Memory Partition 3: 
Cache L2_bank_006:
MSHR contents

Cache L2_bank_007:
MSHR contents

In Dram Latency Queue (total = 0): 
DRAM[3]: 16 bks, busW=4 BL=8 CL=12, tRRD=2 tCCD=6, tRCD=12 tRAS=28 tRP=12 tRC=40
n_cmd=2063709 n_nop=2005817 n_act=626 n_pre=610 n_req=24482 n_rd=26800 n_write=29856 bw_util=0.05491
n_activity=139937 dram_eff=0.8097
bk0: 1728a 2008271i bk1: 1728a 2007966i bk2: 1692a 2010772i bk3: 1692a 2010370i bk4: 1664a 2011376i bk5: 1664a 2011007i bk6: 1664a 2009817i bk7: 1664a 2009992i bk8: 1664a 2011837i bk9: 1664a 2011010i bk10: 1652a 2010476i bk11: 1652a 2010268i bk12: 1628a 2012886i bk13: 1628a 2012139i bk14: 1708a 2009081i bk15: 1708a 2008264i 
dram_util_bins: 0 0 0 0 0 0 0 0 0 0
dram_eff_bins: 0 0 0 0 0 0 0 0 0 0
mrqq: max=64 avg=3.92107
Memory Partition 4: 
Cache L2_bank_008:
MSHR contents

Cache L2_bank_009:
MSHR contents

In Dram Latency Queue (total = 0): 
DRAM[4]: 16 bks, busW=4 BL=8 CL=12, tRRD=2 tCCD=6, tRCD=12 tRAS=28 tRP=12 tRC=40
n_cmd=2063709 n_nop=2005753 n_act=624 n_pre=608 n_req=24504 n_rd=26816 n_write=29908 bw_util=0.05497
n_activity=140150 dram_eff=0.8095
bk0: 1728a 2008360i bk1: 1728a 2008552i bk2: 1692a 2010664i bk3: 1692a 2010020i bk4: 1664a 2012204i bk5: 1664a 2010576i bk6: 1664a 2010184i bk7: 1664a 2008970i bk8: 1664a 2011582i bk9: 1664a 2010840i bk10: 1652a 2010484i bk11: 1652a 2010889i bk12: 1628a 2012985i bk13: 1628a 2012188i bk14: 1716a 2009241i bk15: 1716a 2008464i 
dram_util_bins: 0 0 0 0 0 0 0 0 0 0
dram_eff_bins: 0 0 0 0 0 0 0 0 0 0
mrqq: max=64 avg=3.9244
Memory Partition 5: 
Cache L2_bank_010:
MSHR contents

Cache L2_bank_011:
MSHR contents

In Dram Latency Queue (total = 0): 
DRAM[5]: 16 bks, busW=4 BL=8 CL=12, tRRD=2 tCCD=6, tRCD=12 tRAS=28 tRP=12 tRC=40
n_cmd=2063709 n_nop=2005735 n_act=648 n_pre=632 n_req=24493 n_rd=26812 n_write=29882 bw_util=0.05494
n_activity=140002 dram_eff=0.8099
bk0: 1728a 2007892i bk1: 1728a 2007270i bk2: 1692a 2010642i bk3: 1692a 2010021i bk4: 1664a 2011306i bk5: 1664a 2010513i bk6: 1664a 2009714i bk7: 1664a 2009193i bk8: 1664a 2011231i bk9: 1664a 2010350i bk10: 1652a 2011464i bk11: 1652a 2010433i bk12: 1628a 2012026i bk13: 1628a 2011595i bk14: 1716a 2008909i bk15: 1712a 2008566i 
dram_util_bins: 0 0 0 0 0 0 0 0 0 0
dram_eff_bins: 0 0 0 0 0 0 0 0 0 0
mrqq: max=64 avg=3.91912
Memory Partition 6: 
Cache L2_bank_012:
MSHR contents

Cache L2_bank_013:
MSHR contents

In Dram Latency Queue (total = 0): 
DRAM[6]: 16 bks, busW=4 BL=8 CL=12, tRRD=2 tCCD=6, tRCD=12 tRAS=28 tRP=12 tRC=40
n_cmd=2063709 n_nop=2005786 n_act=637 n_pre=621 n_req=24473 n_rd=26808 n_write=29857 bw_util=0.05492
n_activity=139673 dram_eff=0.8114
bk0: 1728a 2008291i bk1: 1728a 2007187i bk2: 1692a 2009737i bk3: 1692a 2010365i bk4: 1664a 2011450i bk5: 1664a 2010619i bk6: 1664a 2009942i bk7: 1664a 2009202i bk8: 1664a 2010809i bk9: 1664a 2010350i bk10: 1652a 2010921i bk11: 1652a 2011122i bk12: 1628a 2012321i bk13: 1628a 2011491i bk14: 1712a 2008804i bk15: 1712a 2008724i 
dram_util_bins: 0 0 0 0 0 0 0 0 0 0
dram_eff_bins: 0 0 0 0 0 0 0 0 0 0
mrqq: max=64 avg=3.91326
Memory Partition 7: 
Cache L2_bank_014:
MSHR contents

Cache L2_bank_015:
MSHR contents

In Dram Latency Queue (total = 0): 
DRAM[7]: 16 bks, busW=4 BL=8 CL=12, tRRD=2 tCCD=6, tRCD=12 tRAS=28 tRP=12 tRC=40
n_cmd=2063709 n_nop=2005730 n_act=636 n_pre=620 n_req=24491 n_rd=26808 n_write=29915 bw_util=0.05497
n_activity=139864 dram_eff=0.8111
bk0: 1728a 2007859i bk1: 1728a 2007538i bk2: 1692a 2010616i bk3: 1692a 2009344i bk4: 1664a 2011172i bk5: 1664a 2010913i bk6: 1664a 2008639i bk7: 1664a 2009587i bk8: 1664a 2010689i bk9: 1664a 2010150i bk10: 1652a 2010891i bk11: 1652a 2010257i bk12: 1628a 2012167i bk13: 1628a 2011367i bk14: 1712a 2009085i bk15: 1712a 2008271i 
dram_util_bins: 0 0 0 0 0 0 0 0 0 0
dram_eff_bins: 0 0 0 0 0 0 0 0 0 0
mrqq: max=64 avg=3.91993
Memory Partition 8: 
Cache L2_bank_016:
MSHR contents

Cache L2_bank_017:
MSHR contents

In Dram Latency Queue (total = 0): 
DRAM[8]: 16 bks, busW=4 BL=8 CL=12, tRRD=2 tCCD=6, tRCD=12 tRAS=28 tRP=12 tRC=40
n_cmd=2063709 n_nop=2005811 n_act=635 n_pre=619 n_req=24467 n_rd=26816 n_write=29828 bw_util=0.0549
n_activity=139385 dram_eff=0.8128
bk0: 1728a 2007545i bk1: 1728a 2007442i bk2: 1692a 2010865i bk3: 1692a 2009859i bk4: 1664a 2010888i bk5: 1664a 2010274i bk6: 1664a 2009912i bk7: 1664a 2009308i bk8: 1664a 2011096i bk9: 1664a 2010466i bk10: 1652a 2010024i bk11: 1652a 2010193i bk12: 1632a 2011545i bk13: 1632a 2011779i bk14: 1712a 2009479i bk15: 1712a 2008404i 
dram_util_bins: 0 0 0 0 0 0 0 0 0 0
dram_eff_bins: 0 0 0 0 0 0 0 0 0 0
mrqq: max=64 avg=3.89682
Memory Partition 9: 
Cache L2_bank_018:
MSHR contents

Cache L2_bank_019:
MSHR contents

In Dram Latency Queue (total = 0): 
DRAM[9]: 16 bks, busW=4 BL=8 CL=12, tRRD=2 tCCD=6, tRCD=12 tRAS=28 tRP=12 tRC=40
n_cmd=2063709 n_nop=2005696 n_act=642 n_pre=626 n_req=24527 n_rd=26816 n_write=29929 bw_util=0.05499
n_activity=139886 dram_eff=0.8113
bk0: 1728a 2007627i bk1: 1728a 2007261i bk2: 1692a 2009805i bk3: 1692a 2009874i bk4: 1664a 2011555i bk5: 1664a 2010836i bk6: 1664a 2009056i bk7: 1664a 2009090i bk8: 1664a 2010714i bk9: 1664a 2010042i bk10: 1652a 2010724i bk11: 1652a 2010514i bk12: 1632a 2011745i bk13: 1632a 2011542i bk14: 1712a 2009280i bk15: 1712a 2008843i 
dram_util_bins: 0 0 0 0 0 0 0 0 0 0
dram_eff_bins: 0 0 0 0 0 0 0 0 0 0
mrqq: max=64 avg=3.91095
Memory Partition 10: 
Cache L2_bank_020:
MSHR contents

Cache L2_bank_021:
MSHR contents

In Dram Latency Queue (total = 0): 
DRAM[10]: 16 bks, busW=4 BL=8 CL=12, tRRD=2 tCCD=6, tRCD=12 tRAS=28 tRP=12 tRC=40
n_cmd=2063709 n_nop=2005743 n_act=635 n_pre=619 n_req=24519 n_rd=26816 n_write=29896 bw_util=0.05496
n_activity=139576 dram_eff=0.8126
bk0: 1728a 2007962i bk1: 1728a 2008215i bk2: 1692a 2010721i bk3: 1692a 2010236i bk4: 1664a 2011758i bk5: 1664a 2011150i bk6: 1664a 2008819i bk7: 1664a 2008005i bk8: 1664a 2010639i bk9: 1664a 2010072i bk10: 1652a 2010376i bk11: 1652a 2009541i bk12: 1632a 2011864i bk13: 1632a 2011234i bk14: 1712a 2009354i bk15: 1712a 2008540i 
dram_util_bins: 0 0 0 0 0 0 0 0 0 0
dram_eff_bins: 0 0 0 0 0 0 0 0 0 0
mrqq: max=64 avg=3.90962

========= L2 cache stats =========
L2_cache_bank[0]: Access = 8970, Miss = 3353, Miss_rate = 0.374, Pending_hits = 5545, Reservation_fails = 136
L2_cache_bank[1]: Access = 8942, Miss = 3352, Miss_rate = 0.375, Pending_hits = 5502, Reservation_fails = 214
L2_cache_bank[2]: Access = 8934, Miss = 3351, Miss_rate = 0.375, Pending_hits = 5510, Reservation_fails = 190
L2_cache_bank[3]: Access = 8934, Miss = 3351, Miss_rate = 0.375, Pending_hits = 5521, Reservation_fails = 196
L2_cache_bank[4]: Access = 8934, Miss = 3351, Miss_rate = 0.375, Pending_hits = 5513, Reservation_fails = 164
L2_cache_bank[5]: Access = 8934, Miss = 3351, Miss_rate = 0.375, Pending_hits = 5489, Reservation_fails = 181
L2_cache_bank[6]: Access = 8932, Miss = 3350, Miss_rate = 0.375, Pending_hits = 5505, Reservation_fails = 190
L2_cache_bank[7]: Access = 8932, Miss = 3350, Miss_rate = 0.375, Pending_hits = 5500, Reservation_fails = 156
L2_cache_bank[8]: Access = 8963, Miss = 3352, Miss_rate = 0.374, Pending_hits = 5529, Reservation_fails = 211
L2_cache_bank[9]: Access = 8962, Miss = 3352, Miss_rate = 0.374, Pending_hits = 5537, Reservation_fails = 134
L2_cache_bank[10]: Access = 8962, Miss = 3352, Miss_rate = 0.374, Pending_hits = 5523, Reservation_fails = 176
L2_cache_bank[11]: Access = 8934, Miss = 3351, Miss_rate = 0.375, Pending_hits = 5508, Reservation_fails = 173
L2_cache_bank[12]: Access = 8934, Miss = 3351, Miss_rate = 0.375, Pending_hits = 5487, Reservation_fails = 189
L2_cache_bank[13]: Access = 8934, Miss = 3351, Miss_rate = 0.375, Pending_hits = 5499, Reservation_fails = 194
L2_cache_bank[14]: Access = 8934, Miss = 3351, Miss_rate = 0.375, Pending_hits = 5497, Reservation_fails = 227
L2_cache_bank[15]: Access = 8934, Miss = 3351, Miss_rate = 0.375, Pending_hits = 5494, Reservation_fails = 166
L2_cache_bank[16]: Access = 8943, Miss = 3352, Miss_rate = 0.375, Pending_hits = 5483, Reservation_fails = 153
L2_cache_bank[17]: Access = 8942, Miss = 3352, Miss_rate = 0.375, Pending_hits = 5495, Reservation_fails = 136
L2_cache_bank[18]: Access = 8943, Miss = 3352, Miss_rate = 0.375, Pending_hits = 5532, Reservation_fails = 144
L2_cache_bank[19]: Access = 8942, Miss = 3352, Miss_rate = 0.375, Pending_hits = 5502, Reservation_fails = 150
L2_cache_bank[20]: Access = 8942, Miss = 3352, Miss_rate = 0.375, Pending_hits = 5510, Reservation_fails = 160
L2_cache_bank[21]: Access = 8942, Miss = 3352, Miss_rate = 0.375, Pending_hits = 5523, Reservation_fails = 137
L2_total_cache_accesses = 196723
L2_total_cache_misses = 73732
L2_total_cache_miss_rate = 0.3748
L2_total_cache_pending_hits = 121204
L2_total_cache_reservation_fails = 3777
L2_total_cache_breakdown:
	L2_cache_stats_breakdown[GLOBAL_ACC_R][HIT] = 0
	L2_cache_stats_breakdown[GLOBAL_ACC_R][HIT_RESERVED] = 0
	L2_cache_stats_breakdown[GLOBAL_ACC_R][MISS] = 0
	L2_cache_stats_breakdown[GLOBAL_ACC_R][RESERVATION_FAIL] = 0
	L2_cache_stats_breakdown[LOCAL_ACC_R][HIT] = 0
	L2_cache_stats_breakdown[LOCAL_ACC_R][HIT_RESERVED] = 0
	L2_cache_stats_breakdown[LOCAL_ACC_R][MISS] = 0
	L2_cache_stats_breakdown[LOCAL_ACC_R][RESERVATION_FAIL] = 0
	L2_cache_stats_breakdown[CONST_ACC_R][HIT] = 0
	L2_cache_stats_breakdown[CONST_ACC_R][HIT_RESERVED] = 27
	L2_cache_stats_breakdown[CONST_ACC_R][MISS] = 1
	L2_cache_stats_breakdown[CONST_ACC_R][RESERVATION_FAIL] = 0
	L2_cache_stats_breakdown[TEXTURE_ACC_R][HIT] = 0
	L2_cache_stats_breakdown[TEXTURE_ACC_R][HIT_RESERVED] = 0
	L2_cache_stats_breakdown[TEXTURE_ACC_R][MISS] = 0
	L2_cache_stats_breakdown[TEXTURE_ACC_R][RESERVATION_FAIL] = 0
	L2_cache_stats_breakdown[GLOBAL_ACC_W][HIT] = 1787
	L2_cache_stats_breakdown[GLOBAL_ACC_W][HIT_RESERVED] = 121096
	L2_cache_stats_breakdown[GLOBAL_ACC_W][MISS] = 73728
	L2_cache_stats_breakdown[GLOBAL_ACC_W][RESERVATION_FAIL] = 3777
	L2_cache_stats_breakdown[LOCAL_ACC_W][HIT] = 0
	L2_cache_stats_breakdown[LOCAL_ACC_W][HIT_RESERVED] = 0
	L2_cache_stats_breakdown[LOCAL_ACC_W][MISS] = 0
	L2_cache_stats_breakdown[LOCAL_ACC_W][RESERVATION_FAIL] = 0
	L2_cache_stats_breakdown[L1_WRBK_ACC][HIT] = 0
	L2_cache_stats_breakdown[L1_WRBK_ACC][HIT_RESERVED] = 0
	L2_cache_stats_breakdown[L1_WRBK_ACC][MISS] = 0
	L2_cache_stats_breakdown[L1_WRBK_ACC][RESERVATION_FAIL] = 0
	L2_cache_stats_breakdown[L2_WRBK_ACC][HIT] = 0
	L2_cache_stats_breakdown[L2_WRBK_ACC][HIT_RESERVED] = 0
	L2_cache_stats_breakdown[L2_WRBK_ACC][MISS] = 0
	L2_cache_stats_breakdown[L2_WRBK_ACC][RESERVATION_FAIL] = 0
	L2_cache_stats_breakdown[INST_ACC_R][HIT] = 0
	L2_cache_stats_breakdown[INST_ACC_R][HIT_RESERVED] = 81
	L2_cache_stats_breakdown[INST_ACC_R][MISS] = 3
	L2_cache_stats_breakdown[INST_ACC_R][RESERVATION_FAIL] = 0
	L2_cache_stats_breakdown[L1_WR_ALLOC_R][HIT] = 0
	L2_cache_stats_breakdown[L1_WR_ALLOC_R][HIT_RESERVED] = 0
	L2_cache_stats_breakdown[L1_WR_ALLOC_R][MISS] = 0
	L2_cache_stats_breakdown[L1_WR_ALLOC_R][RESERVATION_FAIL] = 0
	L2_cache_stats_breakdown[L2_WR_ALLOC_R][HIT] = 0
	L2_cache_stats_breakdown[L2_WR_ALLOC_R][HIT_RESERVED] = 0
	L2_cache_stats_breakdown[L2_WR_ALLOC_R][MISS] = 0
	L2_cache_stats_breakdown[L2_WR_ALLOC_R][RESERVATION_FAIL] = 0
	L2_cache_stats_breakdown[CONST_ACC_R][TOTAL_ACCESS] = 28
	L2_cache_stats_breakdown[GLOBAL_ACC_W][TOTAL_ACCESS] = 196611
	L2_cache_stats_breakdown[INST_ACC_R][TOTAL_ACCESS] = 84
L2_cache_data_port_util = 0.000
L2_cache_fill_port_util = 0.012

icnt_total_pkts_mem_to_simt=197115
icnt_total_pkts_simt_to_mem=524406
LD_mem_lat_dist  0 0 0 0 0 0 0 0 0 0 0 0 0 0 0 0 0 0 0 0 0 0 0 0 0 0 0
ST_mem_lat_dist  0 0 0 0 0 0 0 0 0 0 0 0 0 0 0 0 0 0 0 0 0 0 0 0 0 0 0
----------------------------Interconnect-DETAILS--------------------------------
Class 0:
Packet latency average = 28.2613
	minimum = 6
	maximum = 844
Network latency average = 20.3072
	minimum = 6
	maximum = 818
Slowest packet = 86514
Flit latency average = 24.1222
	minimum = 6
	maximum = 816
Slowest flit = 687281
Fragmentation average = 0.525526
	minimum = 0
	maximum = 611
Injected packet rate average = 0.00354009
	minimum = 0.00311814 (at node 18)
	maximum = 0.00403545 (at node 28)
Accepted packet rate average = 0.00354009
	minimum = 0.00311814 (at node 18)
	maximum = 0.00403545 (at node 28)
Injected flit rate average = 0.006492
	minimum = 0.00401835 (at node 34)
	maximum = 0.00856037 (at node 4)
Accepted flit rate average= 0.006492
	minimum = 0.00312443 (at node 18)
	maximum = 0.0107387 (at node 28)
Injected packet length average = 1.83385
Accepted packet length average = 1.83385
Total in-flight flits = 0 (0 measured)
====== Overall Traffic Statistics ======
====== Traffic class 0 ======
Packet latency average = 28.2613 (1 samples)
	minimum = 6 (1 samples)
	maximum = 844 (1 samples)
Network latency average = 20.3072 (1 samples)
	minimum = 6 (1 samples)
	maximum = 818 (1 samples)
Flit latency average = 24.1222 (1 samples)
	minimum = 6 (1 samples)
	maximum = 816 (1 samples)
Fragmentation average = 0.525526 (1 samples)
	minimum = 0 (1 samples)
	maximum = 611 (1 samples)
Injected packet rate average = 0.00354009 (1 samples)
	minimum = 0.00311814 (1 samples)
	maximum = 0.00403545 (1 samples)
Accepted packet rate average = 0.00354009 (1 samples)
	minimum = 0.00311814 (1 samples)
	maximum = 0.00403545 (1 samples)
Injected flit rate average = 0.006492 (1 samples)
	minimum = 0.00401835 (1 samples)
	maximum = 0.00856037 (1 samples)
Accepted flit rate average = 0.006492 (1 samples)
	minimum = 0.00312443 (1 samples)
	maximum = 0.0107387 (1 samples)
Injected packet size average = 1.83385 (1 samples)
Accepted packet size average = 1.83385 (1 samples)
Hops average = 1 (1 samples)
----------------------------END-of-Interconnect-DETAILS-------------------------


gpgpu_simulation_time = 0 days, 0 hrs, 14 min, 36 sec (876 sec)
gpgpu_simulation_rate = 31122 (inst/sec)
gpgpu_simulation_rate = 1522 (cycle/sec)

GPGPU-Sim PTX: cudaLaunch for 0x0x401da9 (mode=performance simulation) on stream 0
GPGPU-Sim PTX: pushing kernel '_Z7Kernel1PKiS0_PKfPbPfS4_ii' to stream 0, gridDim= (65536,1,1) blockDim = (16,1,1) 
GPGPU-Sim uArch: Shader 7 bind to kernel 2 '_Z7Kernel1PKiS0_PKfPbPfS4_ii'
GPGPU-Sim uArch: CTA/core = 32, limited by: cta_limit
GPGPU-Sim uArch: Shader 8 bind to kernel 2 '_Z7Kernel1PKiS0_PKfPbPfS4_ii'
GPGPU-Sim uArch: Shader 9 bind to kernel 2 '_Z7Kernel1PKiS0_PKfPbPfS4_ii'
GPGPU-Sim uArch: Shader 10 bind to kernel 2 '_Z7Kernel1PKiS0_PKfPbPfS4_ii'
GPGPU-Sim uArch: Shader 11 bind to kernel 2 '_Z7Kernel1PKiS0_PKfPbPfS4_ii'
GPGPU-Sim uArch: Shader 12 bind to kernel 2 '_Z7Kernel1PKiS0_PKfPbPfS4_ii'
GPGPU-Sim uArch: Shader 13 bind to kernel 2 '_Z7Kernel1PKiS0_PKfPbPfS4_ii'
GPGPU-Sim uArch: Shader 14 bind to kernel 2 '_Z7Kernel1PKiS0_PKfPbPfS4_ii'
GPGPU-Sim uArch: Shader 15 bind to kernel 2 '_Z7Kernel1PKiS0_PKfPbPfS4_ii'
GPGPU-Sim uArch: Shader 16 bind to kernel 2 '_Z7Kernel1PKiS0_PKfPbPfS4_ii'
GPGPU-Sim uArch: Shader 17 bind to kernel 2 '_Z7Kernel1PKiS0_PKfPbPfS4_ii'
GPGPU-Sim uArch: Shader 18 bind to kernel 2 '_Z7Kernel1PKiS0_PKfPbPfS4_ii'
GPGPU-Sim uArch: Shader 19 bind to kernel 2 '_Z7Kernel1PKiS0_PKfPbPfS4_ii'
GPGPU-Sim uArch: Shader 20 bind to kernel 2 '_Z7Kernel1PKiS0_PKfPbPfS4_ii'
GPGPU-Sim uArch: Shader 21 bind to kernel 2 '_Z7Kernel1PKiS0_PKfPbPfS4_ii'
GPGPU-Sim uArch: Shader 22 bind to kernel 2 '_Z7Kernel1PKiS0_PKfPbPfS4_ii'
GPGPU-Sim uArch: Shader 23 bind to kernel 2 '_Z7Kernel1PKiS0_PKfPbPfS4_ii'
GPGPU-Sim uArch: Shader 24 bind to kernel 2 '_Z7Kernel1PKiS0_PKfPbPfS4_ii'
GPGPU-Sim uArch: Shader 25 bind to kernel 2 '_Z7Kernel1PKiS0_PKfPbPfS4_ii'
GPGPU-Sim uArch: Shader 26 bind to kernel 2 '_Z7Kernel1PKiS0_PKfPbPfS4_ii'
GPGPU-Sim uArch: Shader 27 bind to kernel 2 '_Z7Kernel1PKiS0_PKfPbPfS4_ii'
GPGPU-Sim uArch: Shader 0 bind to kernel 2 '_Z7Kernel1PKiS0_PKfPbPfS4_ii'
GPGPU-Sim uArch: Shader 1 bind to kernel 2 '_Z7Kernel1PKiS0_PKfPbPfS4_ii'
GPGPU-Sim uArch: Shader 2 bind to kernel 2 '_Z7Kernel1PKiS0_PKfPbPfS4_ii'
GPGPU-Sim uArch: Shader 3 bind to kernel 2 '_Z7Kernel1PKiS0_PKfPbPfS4_ii'
GPGPU-Sim uArch: Shader 4 bind to kernel 2 '_Z7Kernel1PKiS0_PKfPbPfS4_ii'
GPGPU-Sim uArch: Shader 5 bind to kernel 2 '_Z7Kernel1PKiS0_PKfPbPfS4_ii'
GPGPU-Sim uArch: Shader 6 bind to kernel 2 '_Z7Kernel1PKiS0_PKfPbPfS4_ii'
GPGPU-Sim uArch: Shader 7 bind to kernel 2 '_Z7Kernel1PKiS0_PKfPbPfS4_ii'
GPGPU-Sim uArch: Shader 8 bind to kernel 2 '_Z7Kernel1PKiS0_PKfPbPfS4_ii'
GPGPU-Sim uArch: Shader 9 bind to kernel 2 '_Z7Kernel1PKiS0_PKfPbPfS4_ii'
GPGPU-Sim uArch: Shader 10 bind to kernel 2 '_Z7Kernel1PKiS0_PKfPbPfS4_ii'
GPGPU-Sim uArch: Shader 11 bind to kernel 2 '_Z7Kernel1PKiS0_PKfPbPfS4_ii'
GPGPU-Sim uArch: Shader 12 bind to kernel 2 '_Z7Kernel1PKiS0_PKfPbPfS4_ii'
GPGPU-Sim uArch: Shader 13 bind to kernel 2 '_Z7Kernel1PKiS0_PKfPbPfS4_ii'
GPGPU-Sim uArch: Shader 14 bind to kernel 2 '_Z7Kernel1PKiS0_PKfPbPfS4_ii'
GPGPU-Sim uArch: Shader 15 bind to kernel 2 '_Z7Kernel1PKiS0_PKfPbPfS4_ii'
GPGPU-Sim uArch: Shader 16 bind to kernel 2 '_Z7Kernel1PKiS0_PKfPbPfS4_ii'
GPGPU-Sim uArch: Shader 17 bind to kernel 2 '_Z7Kernel1PKiS0_PKfPbPfS4_ii'
GPGPU-Sim uArch: Shader 18 bind to kernel 2 '_Z7Kernel1PKiS0_PKfPbPfS4_ii'
GPGPU-Sim uArch: Shader 19 bind to kernel 2 '_Z7Kernel1PKiS0_PKfPbPfS4_ii'
GPGPU-Sim uArch: Shader 20 bind to kernel 2 '_Z7Kernel1PKiS0_PKfPbPfS4_ii'
GPGPU-Sim uArch: Shader 21 bind to kernel 2 '_Z7Kernel1PKiS0_PKfPbPfS4_ii'
GPGPU-Sim uArch: Shader 22 bind to kernel 2 '_Z7Kernel1PKiS0_PKfPbPfS4_ii'
GPGPU-Sim uArch: Shader 23 bind to kernel 2 '_Z7Kernel1PKiS0_PKfPbPfS4_ii'
GPGPU-Sim uArch: Shader 24 bind to kernel 2 '_Z7Kernel1PKiS0_PKfPbPfS4_ii'
GPGPU-Sim uArch: Shader 25 bind to kernel 2 '_Z7Kernel1PKiS0_PKfPbPfS4_ii'
GPGPU-Sim uArch: Shader 26 bind to kernel 2 '_Z7Kernel1PKiS0_PKfPbPfS4_ii'
GPGPU-Sim uArch: Shader 27 bind to kernel 2 '_Z7Kernel1PKiS0_PKfPbPfS4_ii'
GPGPU-Sim uArch: Shader 0 bind to kernel 2 '_Z7Kernel1PKiS0_PKfPbPfS4_ii'
GPGPU-Sim uArch: Shader 1 bind to kernel 2 '_Z7Kernel1PKiS0_PKfPbPfS4_ii'
GPGPU-Sim uArch: Shader 2 bind to kernel 2 '_Z7Kernel1PKiS0_PKfPbPfS4_ii'
GPGPU-Sim uArch: Shader 3 bind to kernel 2 '_Z7Kernel1PKiS0_PKfPbPfS4_ii'
GPGPU-Sim uArch: Shader 4 bind to kernel 2 '_Z7Kernel1PKiS0_PKfPbPfS4_ii'
GPGPU-Sim uArch: Shader 5 bind to kernel 2 '_Z7Kernel1PKiS0_PKfPbPfS4_ii'
GPGPU-Sim uArch: Shader 6 bind to kernel 2 '_Z7Kernel1PKiS0_PKfPbPfS4_ii'
Destroy streams for kernel 2: size 0
kernel_name = _Z7Kernel1PKiS0_PKfPbPfS4_ii 
kernel_launch_uid = 2 
gpu_sim_cycle = 61344
gpu_sim_insn = 20971571
gpu_ipc =     341.8683
gpu_tot_sim_cycle = 1738607
gpu_tot_sim_insn = 48234548
gpu_tot_ipc =      27.7432
gpu_tot_issued_cta = 131072
max_total_param_size = 0
gpu_stall_dramfull = 343311
gpu_stall_icnt2sh    = 2486
partiton_reqs_in_parallel = 1349568
partiton_reqs_in_parallel_total    = 24107533
partiton_level_parallism =      22.0000
partiton_level_parallism_total  =      14.6422
partiton_reqs_in_parallel_util = 1349568
partiton_reqs_in_parallel_util_total    = 24107533
gpu_sim_cycle_parition_util = 61344
gpu_tot_sim_cycle_parition_util    = 1110683
partiton_level_parallism_util =      22.0000
partiton_level_parallism_util_total  =      21.7206
partiton_replys_in_parallel = 65606
partiton_replys_in_parallel_total    = 196723
L2_BW  =     101.3693 GB/Sec
L2_BW_total  =      14.3014 GB/Sec
gpu_total_sim_rate=49319

========= Core cache stats =========
L1I_cache:
	L1I_total_cache_accesses = 1769506
	L1I_total_cache_misses = 4480
	L1I_total_cache_miss_rate = 0.0025
	L1I_total_cache_pending_hits = 0
	L1I_total_cache_reservation_fails = 0
L1D_cache:
	L1D_cache_core[0]: Access = 0, Miss = 0, Miss_rate = -nan, Pending_hits = 0, Reservation_fails = 0
	L1D_cache_core[1]: Access = 0, Miss = 0, Miss_rate = -nan, Pending_hits = 0, Reservation_fails = 0
	L1D_cache_core[2]: Access = 0, Miss = 0, Miss_rate = -nan, Pending_hits = 0, Reservation_fails = 0
	L1D_cache_core[3]: Access = 0, Miss = 0, Miss_rate = -nan, Pending_hits = 0, Reservation_fails = 0
	L1D_cache_core[4]: Access = 0, Miss = 0, Miss_rate = -nan, Pending_hits = 0, Reservation_fails = 0
	L1D_cache_core[5]: Access = 0, Miss = 0, Miss_rate = -nan, Pending_hits = 0, Reservation_fails = 0
	L1D_cache_core[6]: Access = 0, Miss = 0, Miss_rate = -nan, Pending_hits = 0, Reservation_fails = 0
	L1D_cache_core[7]: Access = 0, Miss = 0, Miss_rate = -nan, Pending_hits = 0, Reservation_fails = 0
	L1D_cache_core[8]: Access = 0, Miss = 0, Miss_rate = -nan, Pending_hits = 0, Reservation_fails = 0
	L1D_cache_core[9]: Access = 0, Miss = 0, Miss_rate = -nan, Pending_hits = 0, Reservation_fails = 0
	L1D_cache_core[10]: Access = 0, Miss = 0, Miss_rate = -nan, Pending_hits = 0, Reservation_fails = 0
	L1D_cache_core[11]: Access = 0, Miss = 0, Miss_rate = -nan, Pending_hits = 0, Reservation_fails = 0
	L1D_cache_core[12]: Access = 0, Miss = 0, Miss_rate = -nan, Pending_hits = 0, Reservation_fails = 0
[...]
F:  4389756----T:  4394830 	 St: c04e0000 Sz: 32768 	 Sm: 0 	 T: memcpy_h2d(3.426064)
F:  4394830----T:  4399904 	 St: c04e8000 Sz: 32768 	 Sm: 0 	 T: memcpy_h2d(3.426064)
F:  4399904----T:  4404978 	 St: c0ce0000 Sz: 32768 	 Sm: 0 	 T: memcpy_h2d(3.426064)
F:  4404978----T:  4410052 	 St: c0ce8000 Sz: 32768 	 Sm: 0 	 T: memcpy_h2d(3.426064)
F:  4411482----T:  4419262 	 St: c0540000 Sz: 57344 	 Sm: 0 	 T: memcpy_h2d(5.253207)
F:  4419262----T:  4422062 	 St: c054e000 Sz: 8192 	 Sm: 0 	 T: memcpy_h2d(1.890614)
F:  4422062----T:  4429842 	 St: c0d40000 Sz: 57344 	 Sm: 0 	 T: memcpy_h2d(5.253207)
F:  4429842----T:  4432642 	 St: c0d4e000 Sz: 8192 	 Sm: 0 	 T: memcpy_h2d(1.890614)
F:  4434543----T:  4440955 	 St: c05d0000 Sz: 45056 	 Sm: 0 	 T: memcpy_h2d(4.329507)
F:  4440955----T:  4444767 	 St: c05db000 Sz: 20480 	 Sm: 0 	 T: memcpy_h2d(2.573936)
F:  4444767----T:  4453469 	 St: c05c0000 Sz: 65536 	 Sm: 0 	 T: memcpy_h2d(5.875760)
F:  4453469----T:  4459430 	 St: c05f0000 Sz: 40960 	 Sm: 0 	 T: memcpy_h2d(4.024983)
F:  4459430----T:  4463649 	 St: c05fa000 Sz: 24576 	 Sm: 0 	 T: memcpy_h2d(2.848751)
F:  4463649----T:  4470061 	 St: c0dd0000 Sz: 45056 	 Sm: 0 	 T: memcpy_h2d(4.329507)
F:  4470061----T:  4473873 	 St: c0ddb000 Sz: 20480 	 Sm: 0 	 T: memcpy_h2d(2.573936)
F:  4473873----T:  4482575 	 St: c0dc0000 Sz: 65536 	 Sm: 0 	 T: memcpy_h2d(5.875760)
F:  4482575----T:  4488536 	 St: c0df0000 Sz: 40960 	 Sm: 0 	 T: memcpy_h2d(4.024983)
F:  4488536----T:  4492755 	 St: c0dfa000 Sz: 24576 	 Sm: 0 	 T: memcpy_h2d(2.848751)
F:  4493973----T:  4499047 	 St: c0630000 Sz: 32768 	 Sm: 0 	 T: memcpy_h2d(3.426064)
F:  4499047----T:  4504121 	 St: c0638000 Sz: 32768 	 Sm: 0 	 T: memcpy_h2d(3.426064)
F:  4504121----T:  4509195 	 St: c0e30000 Sz: 32768 	 Sm: 0 	 T: memcpy_h2d(3.426064)
F:  4509195----T:  4514269 	 St: c0e38000 Sz: 32768 	 Sm: 0 	 T: memcpy_h2d(3.426064)
F:  4517045----T:  4519845 	 St: c0700000 Sz: 8192 	 Sm: 0 	 T: memcpy_h2d(1.890614)
F:  4519845----T:  4527625 	 St: c0702000 Sz: 57344 	 Sm: 0 	 T: memcpy_h2d(5.253207)
F:  4527625----T:  4536327 	 St: c0720000 Sz: 65536 	 Sm: 0 	 T: memcpy_h2d(5.875760)
F:  4536327----T:  4539127 	 St: c0f00000 Sz: 8192 	 Sm: 0 	 T: memcpy_h2d(1.890614)
F:  4539127----T:  4546907 	 St: c0f02000 Sz: 57344 	 Sm: 0 	 T: memcpy_h2d(5.253207)
F:  4546907----T:  4555609 	 St: c0f20000 Sz: 65536 	 Sm: 0 	 T: memcpy_h2d(5.875760)
F:  4561941----T:  4567456 	 St: c0270000 Sz: 36864 	 Sm: 0 	 T: memcpy_h2d(3.723835)
F:  4567456----T:  4572097 	 St: c0279000 Sz: 28672 	 Sm: 0 	 T: memcpy_h2d(3.133693)
F:  4572097----T:  4574897 	 St: c08f0000 Sz: 8192 	 Sm: 0 	 T: memcpy_h2d(1.890614)
F:  4574897----T:  4582677 	 St: c08f2000 Sz: 57344 	 Sm: 0 	 T: memcpy_h2d(5.253207)
F:  4582677----T:  4585477 	 St: c10f0000 Sz: 8192 	 Sm: 0 	 T: memcpy_h2d(1.890614)
F:  4585477----T:  4593257 	 St: c10f2000 Sz: 57344 	 Sm: 0 	 T: memcpy_h2d(5.253207)
F:  4596488----T:  4604728 	 St: c09b0000 Sz: 61440 	 Sm: 0 	 T: memcpy_h2d(5.563808)
F:  4604728----T:  4607333 	 St: c09bf000 Sz: 4096 	 Sm: 0 	 T: memcpy_h2d(1.758947)
F:  4607333----T:  4615573 	 St: c11b0000 Sz: 61440 	 Sm: 0 	 T: memcpy_h2d(5.563808)
F:  4615573----T:  4618178 	 St: c11bf000 Sz: 4096 	 Sm: 0 	 T: memcpy_h2d(1.758947)
F:  4620171----T:  4625686 	 St: c0a50000 Sz: 36864 	 Sm: 0 	 T: memcpy_h2d(3.723835)
F:  4625686----T:  4630327 	 St: c0a59000 Sz: 28672 	 Sm: 0 	 T: memcpy_h2d(3.133693)
F:  4630327----T:  4635842 	 St: c1250000 Sz: 36864 	 Sm: 0 	 T: memcpy_h2d(3.723835)
F:  4635842----T:  4640483 	 St: c1259000 Sz: 28672 	 Sm: 0 	 T: memcpy_h2d(3.133693)
F:  4641779----T:  4648644 	 St: c0360000 Sz: 49152 	 Sm: 0 	 T: memcpy_h2d(4.635382)
F:  4648644----T:  4652074 	 St: c036c000 Sz: 16384 	 Sm: 0 	 T: memcpy_h2d(2.316003)
F:  4652074----T:  4656715 	 St: c0ad0000 Sz: 28672 	 Sm: 0 	 T: memcpy_h2d(3.133693)
F:  4656715----T:  4662230 	 St: c0ad7000 Sz: 36864 	 Sm: 0 	 T: memcpy_h2d(3.723835)
F:  4662230----T:  4666871 	 St: c12d0000 Sz: 28672 	 Sm: 0 	 T: memcpy_h2d(3.133693)
F:  4666871----T:  4672386 	 St: c12d7000 Sz: 36864 	 Sm: 0 	 T: memcpy_h2d(3.723835)
F:  4673721----T:  4678795 	 St: c0b10000 Sz: 32768 	 Sm: 0 	 T: memcpy_h2d(3.426064)
F:  4678795----T:  4683869 	 St: c0b18000 Sz: 32768 	 Sm: 0 	 T: memcpy_h2d(3.426064)
F:  4683869----T:  4688943 	 St: c1310000 Sz: 32768 	 Sm: 0 	 T: memcpy_h2d(3.426064)
F:  4688943----T:  4694017 	 St: c1318000 Sz: 32768 	 Sm: 0 	 T: memcpy_h2d(3.426064)
F:  4918816----T:  4960768 	 	 	 Kl: 11 	 Sm: 0 	 T: kernel_launch(28.326807)
F:  4960768----T:  5082328 	 St: 80000000 Sz: 1048576 	 Sm: 0 	 T: memcpy_d2h(82.079674)
F:  5304479----T:  7144052 	 	 	 Kl: 12 	 Sm: 0 	 T: kernel_launch(1242.115479)
F:  5306907----T:  5330579 	 St: c0410000 Sz: 196608 	 Sm: 0 	 T: memcpy_h2d(15.983795)
F:  5330579----T:  5344401 	 St: c0450000 Sz: 110592 	 Sm: 0 	 T: memcpy_h2d(9.332883)
F:  5344401----T:  5348213 	 St: c046b000 Sz: 20480 	 Sm: 0 	 T: memcpy_h2d(2.573936)
F:  5348213----T:  5364376 	 St: c0480000 Sz: 131072 	 Sm: 0 	 T: memcpy_h2d(10.913572)
F:  5364376----T:  5388048 	 St: c04b0000 Sz: 196608 	 Sm: 0 	 T: memcpy_h2d(15.983795)
F:  5388048----T:  5426767 	 St: c04f0000 Sz: 327680 	 Sm: 0 	 T: memcpy_h2d(26.143822)
F:  5426767----T:  5480543 	 St: c0550000 Sz: 458752 	 Sm: 0 	 T: memcpy_h2d(36.310600)
F:  5480543----T:  5504215 	 St: c0c10000 Sz: 196608 	 Sm: 0 	 T: memcpy_h2d(15.983795)
F:  5504215----T:  5518037 	 St: c0c50000 Sz: 110592 	 Sm: 0 	 T: memcpy_h2d(9.332883)
F:  5518037----T:  5521849 	 St: c0c6b000 Sz: 20480 	 Sm: 0 	 T: memcpy_h2d(2.573936)
F:  5521849----T:  5538012 	 St: c0c80000 Sz: 131072 	 Sm: 0 	 T: memcpy_h2d(10.913572)
F:  5538012----T:  5561684 	 St: c0cb0000 Sz: 196608 	 Sm: 0 	 T: memcpy_h2d(15.983795)
F:  5561684----T:  5600403 	 St: c0cf0000 Sz: 327680 	 Sm: 0 	 T: memcpy_h2d(26.143822)
F:  5600403----T:  5654179 	 St: c0d50000 Sz: 458752 	 Sm: 0 	 T: memcpy_h2d(36.310600)
F:  5660737----T:  5668517 	 St: c0640000 Sz: 57344 	 Sm: 0 	 T: memcpy_h2d(5.253207)
F:  5668517----T:  5671317 	 St: c064e000 Sz: 8192 	 Sm: 0 	 T: memcpy_h2d(1.890614)
F:  5671317----T:  5675958 	 St: c0660000 Sz: 28672 	 Sm: 0 	 T: memcpy_h2d(3.133693)
F:  5675958----T:  5681473 	 St: c0667000 Sz: 36864 	 Sm: 0 	 T: memcpy_h2d(3.723835)
F:  5681473----T:  5689253 	 St: c0e40000 Sz: 57344 	 Sm: 0 	 T: memcpy_h2d(5.253207)
F:  5689253----T:  5692053 	 St: c0e4e000 Sz: 8192 	 Sm: 0 	 T: memcpy_h2d(1.890614)
F:  5692053----T:  5696694 	 St: c0e60000 Sz: 28672 	 Sm: 0 	 T: memcpy_h2d(3.133693)
F:  5696694----T:  5702209 	 St: c0e67000 Sz: 36864 	 Sm: 0 	 T: memcpy_h2d(3.723835)
F:  5703166----T:  5706978 	 St: c0690000 Sz: 20480 	 Sm: 0 	 T: memcpy_h2d(2.573936)
F:  5706978----T:  5713390 	 St: c0695000 Sz: 45056 	 Sm: 0 	 T: memcpy_h2d(4.329507)
F:  5713390----T:  5717609 	 St: c06a0000 Sz: 24576 	 Sm: 0 	 T: memcpy_h2d(2.848751)
F:  5717609----T:  5723570 	 St: c06a6000 Sz: 40960 	 Sm: 0 	 T: memcpy_h2d(4.024983)
F:  5723570----T:  5727382 	 St: c0e90000 Sz: 20480 	 Sm: 0 	 T: memcpy_h2d(2.573936)
F:  5727382----T:  5733794 	 St: c0e95000 Sz: 45056 	 Sm: 0 	 T: memcpy_h2d(4.329507)
F:  5733794----T:  5738013 	 St: c0ea0000 Sz: 24576 	 Sm: 0 	 T: memcpy_h2d(2.848751)
F:  5738013----T:  5743974 	 St: c0ea6000 Sz: 40960 	 Sm: 0 	 T: memcpy_h2d(4.024983)
F:  5746528----T:  5770200 	 St: c0600000 Sz: 196608 	 Sm: 0 	 T: memcpy_h2d(15.983795)
F:  5770200----T:  5778902 	 St: c0650000 Sz: 65536 	 Sm: 0 	 T: memcpy_h2d(5.875760)
F:  5778902----T:  5795065 	 St: c0670000 Sz: 131072 	 Sm: 0 	 T: memcpy_h2d(10.913572)
F:  5795065----T:  5833784 	 St: c06b0000 Sz: 327680 	 Sm: 0 	 T: memcpy_h2d(26.143822)
F:  5833784----T:  5842486 	 St: c0740000 Sz: 65536 	 Sm: 0 	 T: memcpy_h2d(5.875760)
F:  5842486----T:  5873679 	 St: c0750000 Sz: 262144 	 Sm: 0 	 T: memcpy_h2d(21.062120)
F:  5873679----T:  5919926 	 St: c07a0000 Sz: 393216 	 Sm: 0 	 T: memcpy_h2d(31.226873)
F:  5919926----T:  5943598 	 St: c0e00000 Sz: 196608 	 Sm: 0 	 T: memcpy_h2d(15.983795)
F:  5943598----T:  5952300 	 St: c0e50000 Sz: 65536 	 Sm: 0 	 T: memcpy_h2d(5.875760)
F:  5952300----T:  5968463 	 St: c0e70000 Sz: 131072 	 Sm: 0 	 T: memcpy_h2d(10.913572)
F:  5968463----T:  6007182 	 St: c0eb0000 Sz: 327680 	 Sm: 0 	 T: memcpy_h2d(26.143822)
F:  6007182----T:  6015884 	 St: c0f40000 Sz: 65536 	 Sm: 0 	 T: memcpy_h2d(5.875760)
F:  6015884----T:  6047077 	 St: c0f50000 Sz: 262144 	 Sm: 0 	 T: memcpy_h2d(21.062120)
F:  6047077----T:  6093324 	 St: c0fa0000 Sz: 393216 	 Sm: 0 	 T: memcpy_h2d(31.226873)
F:  6096084----T:  6102949 	 St: c0210000 Sz: 49152 	 Sm: 0 	 T: memcpy_h2d(4.635382)
F:  6102949----T:  6106379 	 St: c021c000 Sz: 16384 	 Sm: 0 	 T: memcpy_h2d(2.316003)
F:  6106379----T:  6111453 	 St: c0830000 Sz: 32768 	 Sm: 0 	 T: memcpy_h2d(3.426064)
F:  6111453----T:  6116527 	 St: c0838000 Sz: 32768 	 Sm: 0 	 T: memcpy_h2d(3.426064)
F:  6116527----T:  6121601 	 St: c1030000 Sz: 32768 	 Sm: 0 	 T: memcpy_h2d(3.426064)
F:  6121601----T:  6126675 	 St: c1038000 Sz: 32768 	 Sm: 0 	 T: memcpy_h2d(3.426064)
F:  6130360----T:  6134172 	 St: c02a0000 Sz: 20480 	 Sm: 0 	 T: memcpy_h2d(2.573936)
F:  6134172----T:  6140584 	 St: c02a5000 Sz: 45056 	 Sm: 0 	 T: memcpy_h2d(4.329507)
F:  6140584----T:  6146099 	 St: c0940000 Sz: 36864 	 Sm: 0 	 T: memcpy_h2d(3.723835)
F:  6146099----T:  6150740 	 St: c0949000 Sz: 28672 	 Sm: 0 	 T: memcpy_h2d(3.133693)
F:  6150740----T:  6156255 	 St: c1140000 Sz: 36864 	 Sm: 0 	 T: memcpy_h2d(3.723835)
F:  6156255----T:  6160896 	 St: c1149000 Sz: 28672 	 Sm: 0 	 T: memcpy_h2d(3.133693)
F:  6162008----T:  6169330 	 St: c02c0000 Sz: 53248 	 Sm: 0 	 T: memcpy_h2d(4.943957)
F:  6169330----T:  6172416 	 St: c02cd000 Sz: 12288 	 Sm: 0 	 T: memcpy_h2d(2.083727)
F:  6172416----T:  6185771 	 St: c0980000 Sz: 106496 	 Sm: 0 	 T: memcpy_h2d(9.017555)
F:  6185771----T:  6189990 	 St: c099a000 Sz: 24576 	 Sm: 0 	 T: memcpy_h2d(2.848751)
F:  6189990----T:  6203345 	 St: c1180000 Sz: 106496 	 Sm: 0 	 T: memcpy_h2d(9.017555)
F:  6203345----T:  6207564 	 St: c119a000 Sz: 24576 	 Sm: 0 	 T: memcpy_h2d(2.848751)
F:  6208080----T:  6216782 	 St: c0200000 Sz: 65536 	 Sm: 0 	 T: memcpy_h2d(5.875760)
F:  6216782----T:  6247975 	 St: c0230000 Sz: 262144 	 Sm: 0 	 T: memcpy_h2d(21.062120)
F:  6247975----T:  6256677 	 St: c0290000 Sz: 65536 	 Sm: 0 	 T: memcpy_h2d(5.875760)
F:  6256677----T:  6265379 	 St: c02b0000 Sz: 65536 	 Sm: 0 	 T: memcpy_h2d(5.875760)
F:  6265379----T:  6267984 	 St: c02e0000 Sz: 4096 	 Sm: 0 	 T: memcpy_h2d(1.758947)
F:  6267984----T:  6291187 	 St: c02e1000 Sz: 192512 	 Sm: 0 	 T: memcpy_h2d(15.667117)
F:  6291187----T:  6314859 	 St: c0330000 Sz: 196608 	 Sm: 0 	 T: memcpy_h2d(15.983795)
F:  6314859----T:  6323561 	 St: c0370000 Sz: 65536 	 Sm: 0 	 T: memcpy_h2d(5.875760)
F:  6323561----T:  6354754 	 St: c0390000 Sz: 262144 	 Sm: 0 	 T: memcpy_h2d(21.062120)
F:  6354754----T:  6370917 	 St: c03e0000 Sz: 131072 	 Sm: 0 	 T: memcpy_h2d(10.913572)
F:  6370917----T:  6394589 	 St: c0800000 Sz: 196608 	 Sm: 0 	 T: memcpy_h2d(15.983795)
F:  6394589----T:  6403291 	 St: c0840000 Sz: 65536 	 Sm: 0 	 T: memcpy_h2d(5.875760)
F:  6403291----T:  6472128 	 St: c0860000 Sz: 589824 	 Sm: 0 	 T: memcpy_h2d(46.480080)
F:  6472128----T:  6480830 	 St: c0900000 Sz: 65536 	 Sm: 0 	 T: memcpy_h2d(5.875760)
F:  6480830----T:  6496993 	 St: c0920000 Sz: 131072 	 Sm: 0 	 T: memcpy_h2d(10.913572)
F:  6496993----T:  6520665 	 St: c0950000 Sz: 196608 	 Sm: 0 	 T: memcpy_h2d(15.983795)
F:  6520665----T:  6523465 	 St: c09c0000 Sz: 8192 	 Sm: 0 	 T: memcpy_h2d(1.890614)
F:  6523465----T:  6553718 	 St: c09c2000 Sz: 253952 	 Sm: 0 	 T: memcpy_h2d(20.427414)
F:  6553718----T:  6577390 	 St: c1000000 Sz: 196608 	 Sm: 0 	 T: memcpy_h2d(15.983795)
F:  6577390----T:  6586092 	 St: c1040000 Sz: 65536 	 Sm: 0 	 T: memcpy_h2d(5.875760)
F:  6586092----T:  6654929 	 St: c1060000 Sz: 589824 	 Sm: 0 	 T: memcpy_h2d(46.480080)
F:  6654929----T:  6663631 	 St: c1100000 Sz: 65536 	 Sm: 0 	 T: memcpy_h2d(5.875760)
F:  6663631----T:  6679794 	 St: c1120000 Sz: 131072 	 Sm: 0 	 T: memcpy_h2d(10.913572)
F:  6679794----T:  6703466 	 St: c1150000 Sz: 196608 	 Sm: 0 	 T: memcpy_h2d(15.983795)
F:  6703466----T:  6706266 	 St: c11c0000 Sz: 8192 	 Sm: 0 	 T: memcpy_h2d(1.890614)
F:  6706266----T:  6736519 	 St: c11c2000 Sz: 253952 	 Sm: 0 	 T: memcpy_h2d(20.427414)
F:  6737686----T:  6740772 	 St: c0a00000 Sz: 12288 	 Sm: 0 	 T: memcpy_h2d(2.083727)
F:  6740772----T:  6748094 	 St: c0a03000 Sz: 53248 	 Sm: 0 	 T: memcpy_h2d(4.943957)
F:  6748094----T:  6751180 	 St: c1200000 Sz: 12288 	 Sm: 0 	 T: memcpy_h2d(2.083727)
F:  6751180----T:  6758502 	 St: c1203000 Sz: 53248 	 Sm: 0 	 T: memcpy_h2d(4.943957)
F:  6759946----T:  6768648 	 St: c0a10000 Sz: 65536 	 Sm: 0 	 T: memcpy_h2d(5.875760)
F:  6768648----T:  6777350 	 St: c0a30000 Sz: 65536 	 Sm: 0 	 T: memcpy_h2d(5.875760)
F:  6777350----T:  6786977 	 St: c0a60000 Sz: 73728 	 Sm: 0 	 T: memcpy_h2d(6.500338)
F:  6786977----T:  6832283 	 St: c0a72000 Sz: 385024 	 Sm: 0 	 T: memcpy_h2d(30.591492)
F:  6832283----T:  6848446 	 St: c0ae0000 Sz: 131072 	 Sm: 0 	 T: memcpy_h2d(10.913572)
F:  6848446----T:  6917283 	 St: c0b20000 Sz: 589824 	 Sm: 0 	 T: memcpy_h2d(46.480080)
F:  6917283----T:  6948476 	 St: c0bc0000 Sz: 262144 	 Sm: 0 	 T: memcpy_h2d(21.062120)
F:  6948476----T:  6957178 	 St: c1210000 Sz: 65536 	 Sm: 0 	 T: memcpy_h2d(5.875760)
F:  6957178----T:  6965880 	 St: c1230000 Sz: 65536 	 Sm: 0 	 T: memcpy_h2d(5.875760)
F:  6965880----T:  6975507 	 St: c1260000 Sz: 73728 	 Sm: 0 	 T: memcpy_h2d(6.500338)
F:  6975507----T:  7020813 	 St: c1272000 Sz: 385024 	 Sm: 0 	 T: memcpy_h2d(30.591492)
F:  7020813----T:  7036976 	 St: c12e0000 Sz: 131072 	 Sm: 0 	 T: memcpy_h2d(10.913572)
F:  7036976----T:  7105813 	 St: c1320000 Sz: 589824 	 Sm: 0 	 T: memcpy_h2d(46.480080)
F:  7105813----T:  7137006 	 St: c13c0000 Sz: 262144 	 Sm: 0 	 T: memcpy_h2d(21.062120)
F:  7366202----T:  7408182 	 	 	 Kl: 13 	 Sm: 0 	 T: kernel_launch(28.345713)
F:  7630332----T:  7659863 	 	 	 Kl: 14 	 Sm: 0 	 T: kernel_launch(19.939905)
F:  7882013----T:  7923842 	 	 	 Kl: 15 	 Sm: 0 	 T: kernel_launch(28.243753)
F:  8145992----T:  8176959 	 	 	 Kl: 16 	 Sm: 0 	 T: kernel_launch(20.909521)
F:  8399109----T:  8440998 	 	 	 Kl: 17 	 Sm: 0 	 T: kernel_launch(28.284267)
F:  8663148----T:  8694316 	 	 	 Kl: 18 	 Sm: 0 	 T: kernel_launch(21.045240)
F:  8916466----T:  8958555 	 	 	 Kl: 19 	 Sm: 0 	 T: kernel_launch(28.419312)
F:  9180705----T:  9212266 	 	 	 Kl: 20 	 Sm: 0 	 T: kernel_launch(21.310600)
F:  9434416----T:  9476817 	 	 	 Kl: 21 	 Sm: 0 	 T: kernel_launch(28.629980)
F:  9476817----T:  9598377 	 St: 80000000 Sz: 1048576 	 Sm: 0 	 T: memcpy_d2h(82.079674)
F:  9820528----T:  9852999 	 	 	 Kl: 22 	 Sm: 0 	 T: kernel_launch(21.925051)
F: 10075149----T: 10118227 	 	 	 Kl: 23 	 Sm: 0 	 T: kernel_launch(29.087103)
F: 10340377----T: 10375038 	 	 	 Kl: 24 	 Sm: 0 	 T: kernel_launch(23.403782)
F: 10597188----T: 10641549 	 	 	 Kl: 25 	 Sm: 0 	 T: kernel_launch(29.953409)
F: 10863699----T: 10903510 	 	 	 Kl: 26 	 Sm: 0 	 T: kernel_launch(26.881161)
F: 11125660----T: 11172786 	 	 	 Kl: 27 	 Sm: 0 	 T: kernel_launch(31.820391)
F: 11394936----T: 11444721 	 	 	 Kl: 28 	 Sm: 0 	 T: kernel_launch(33.615799)
F: 11666871----T: 11717751 	 	 	 Kl: 29 	 Sm: 0 	 T: kernel_launch(34.355164)
F: 11939901----T: 12008320 	 	 	 Kl: 30 	 Sm: 0 	 T: kernel_launch(46.197838)
F: 12230470----T: 12285442 	 	 	 Kl: 31 	 Sm: 0 	 T: kernel_launch(37.118164)
F: 12285442----T: 12407002 	 St: 80000000 Sz: 1048576 	 Sm: 0 	 T: memcpy_d2h(82.079674)
F: 12407003----T: 12409608 	 St: 0 Sz: 4096 	 Sm: 0 	 T: device_sync(1.758947)
F: 12407003----T: 12415243 	 St: 0 Sz: 61440 	 Sm: 0 	 T: device_sync(5.563808)
F: 12417848----T: 12420453 	 St: 0 Sz: 4096 	 Sm: 0 	 T: device_sync(1.758947)
F: 12417848----T: 12426088 	 St: 0 Sz: 61440 	 Sm: 0 	 T: device_sync(5.563808)
F: 12428693----T: 12431298 	 St: 0 Sz: 4096 	 Sm: 0 	 T: device_sync(1.758947)
F: 12428693----T: 12444388 	 St: 0 Sz: 126976 	 Sm: 0 	 T: device_sync(10.597569)
F: 12446993----T: 12449598 	 St: 0 Sz: 4096 	 Sm: 0 	 T: device_sync(1.758947)
F: 12446993----T: 12477716 	 St: 0 Sz: 258048 	 Sm: 0 	 T: device_sync(20.744766)
F: 12480321----T: 12482926 	 St: 0 Sz: 4096 	 Sm: 0 	 T: device_sync(1.758947)
F: 12480321----T: 12541157 	 St: 0 Sz: 520192 	 Sm: 0 	 T: device_sync(41.077652)
F: 12543762----T: 12546367 	 St: 0 Sz: 4096 	 Sm: 0 	 T: device_sync(1.758947)
F: 12543762----T: 12664851 	 St: 0 Sz: 1044480 	 Sm: 0 	 T: device_sync(81.761650)
F: 12667456----T: 12670061 	 St: 0 Sz: 4096 	 Sm: 0 	 T: device_sync(1.758947)
F: 12667456----T: 12675696 	 St: 0 Sz: 61440 	 Sm: 0 	 T: device_sync(5.563808)
F: 12678301----T: 12680906 	 St: 0 Sz: 4096 	 Sm: 0 	 T: device_sync(1.758947)
F: 12678301----T: 12686541 	 St: 0 Sz: 61440 	 Sm: 0 	 T: device_sync(5.563808)
F: 12689146----T: 12691751 	 St: 0 Sz: 4096 	 Sm: 0 	 T: device_sync(1.758947)
F: 12689146----T: 12704841 	 St: 0 Sz: 126976 	 Sm: 0 	 T: device_sync(10.597569)
F: 12707446----T: 12710051 	 St: 0 Sz: 4096 	 Sm: 0 	 T: device_sync(1.758947)
F: 12707446----T: 12738169 	 St: 0 Sz: 258048 	 Sm: 0 	 T: device_sync(20.744766)
F: 12740774----T: 12743379 	 St: 0 Sz: 4096 	 Sm: 0 	 T: device_sync(1.758947)
F: 12740774----T: 12801610 	 St: 0 Sz: 520192 	 Sm: 0 	 T: device_sync(41.077652)
F: 12804215----T: 12806820 	 St: 0 Sz: 4096 	 Sm: 0 	 T: device_sync(1.758947)
F: 12804215----T: 12925304 	 St: 0 Sz: 1044480 	 Sm: 0 	 T: device_sync(81.761650)
F: 12927909----T: 12930514 	 St: 0 Sz: 4096 	 Sm: 0 	 T: device_sync(1.758947)
F: 12927909----T: 12936149 	 St: 0 Sz: 61440 	 Sm: 0 	 T: device_sync(5.563808)
F: 12938754----T: 12941359 	 St: 0 Sz: 4096 	 Sm: 0 	 T: device_sync(1.758947)
F: 12938754----T: 12946994 	 St: 0 Sz: 61440 	 Sm: 0 	 T: device_sync(5.563808)
F: 12949599----T: 12952204 	 St: 0 Sz: 4096 	 Sm: 0 	 T: device_sync(1.758947)
F: 12949599----T: 12965294 	 St: 0 Sz: 126976 	 Sm: 0 	 T: device_sync(10.597569)
F: 12967899----T: 12970504 	 St: 0 Sz: 4096 	 Sm: 0 	 T: device_sync(1.758947)
F: 12967899----T: 12998622 	 St: 0 Sz: 258048 	 Sm: 0 	 T: device_sync(20.744766)
F: 13001227----T: 13003832 	 St: 0 Sz: 4096 	 Sm: 0 	 T: device_sync(1.758947)
F: 13001227----T: 13062063 	 St: 0 Sz: 520192 	 Sm: 0 	 T: device_sync(41.077652)
F: 13064668----T: 13067273 	 St: 0 Sz: 4096 	 Sm: 0 	 T: device_sync(1.758947)
F: 13064668----T: 13185757 	 St: 0 Sz: 1044480 	 Sm: 0 	 T: device_sync(81.761650)
F: 13188362----T: 13190967 	 St: 0 Sz: 4096 	 Sm: 0 	 T: device_sync(1.758947)
F: 13188362----T: 13196602 	 St: 0 Sz: 61440 	 Sm: 0 	 T: device_sync(5.563808)
F: 13199207----T: 13201812 	 St: 0 Sz: 4096 	 Sm: 0 	 T: device_sync(1.758947)
F: 13199207----T: 13207447 	 St: 0 Sz: 61440 	 Sm: 0 	 T: device_sync(5.563808)
F: 13210052----T: 13212657 	 St: 0 Sz: 4096 	 Sm: 0 	 T: device_sync(1.758947)
F: 13210052----T: 13225747 	 St: 0 Sz: 126976 	 Sm: 0 	 T: device_sync(10.597569)
F: 13228352----T: 13230957 	 St: 0 Sz: 4096 	 Sm: 0 	 T: device_sync(1.758947)
F: 13228352----T: 13259075 	 St: 0 Sz: 258048 	 Sm: 0 	 T: device_sync(20.744766)
F: 13261680----T: 13264285 	 St: 0 Sz: 4096 	 Sm: 0 	 T: device_sync(1.758947)
F: 13261680----T: 13322516 	 St: 0 Sz: 520192 	 Sm: 0 	 T: device_sync(41.077652)
F: 13325121----T: 13327726 	 St: 0 Sz: 4096 	 Sm: 0 	 T: device_sync(1.758947)
F: 13325121----T: 13446210 	 St: 0 Sz: 1044480 	 Sm: 0 	 T: device_sync(81.761650)
Tot_prefetch_time: 0(cycle), 0.000000(us)
Tot_kernel_exec_time: 5034109(cycle), 3399.128174(us)
Tot_kernel_exec_time_and_fault_time: 13098154(cycle), 8844.127930(us)
Tot_memcpy_h2d_time: 3782603(cycle), 2554.087158(us)
Tot_memcpy_d2h_time: 486240(cycle), 328.318695(us)
Tot_memcpy_time: 4268843(cycle), 2882.405762(us)
Tot_devicesync_time: 1041812(cycle), 703.451721(us)
Tot_writeback_time: 0(cycle), 0.000000(us)
Tot_dma_time: 0(cycle), 0.000000(us)
Tot_memcpy_d2h_sync_wb_time: 1528052(cycle), 1031.770386(us)
GPGPU-Sim: *** exit detected ***
