

        *** GPGPU-Sim Simulator Version 3.2.2  [build gpgpu-sim_git-commit-7c62de1d26a7fea160a1181332b97276bc435f13_modified_409] ***


GPGPU-Sim PTX: simulation mode 0 (can change with PTX_SIM_MODE_FUNC environment variable:
               1=functional simulation only, 0=detailed performance simulator)
GPGPU-Sim: Configuration options:

-network_mode                           1 # Interconnection network mode
-inter_config_file   config_fermi_islip.icnt # Interconnection network config file
-gpgpu_ptx_use_cuobjdump                    1 # Use cuobjdump to extract ptx and sass from binaries
-gpgpu_experimental_lib_support                    0 # Try to extract code from cuda libraries [Broken because of unknown cudaGetExportTable]
-gpgpu_ptx_convert_to_ptxplus                    0 # Convert SASS (native ISA) to ptxplus and run ptxplus
-gpgpu_ptx_force_max_capability                   20 # Force maximum compute capability
-gpgpu_ptx_inst_debug_to_file                    0 # Dump executed instructions' debug information to file
-gpgpu_ptx_inst_debug_file       inst_debug.txt # Executed instructions' debug output file
-gpgpu_ptx_inst_debug_thread_uid                    1 # Thread UID for executed instructions' debug output
-gpgpu_simd_model                       1 # 1 = post-dominator
-gpgpu_shader_core_pipeline              2048:32 # shader core pipeline config, i.e., {<nthread>:<warpsize>}
-gpgpu_tex_cache:l1  16:128:24,L:R:m:N:L,F:128:4,128:2 # per-shader L1 texture cache  (READ-ONLY) config  {<nsets>:<bsize>:<assoc>,<rep>:<wr>:<alloc>:<wr_alloc>,<mshr>:<N>:<merge>,<mq>:<rf>}
-gpgpu_const_cache:l1 128:64:2,L:R:f:N:L,A:2:64,4 # per-shader L1 constant memory cache  (READ-ONLY) config  {<nsets>:<bsize>:<assoc>,<rep>:<wr>:<alloc>:<wr_alloc>,<mshr>:<N>:<merge>,<mq>} 
-gpgpu_cache:il1     8:128:4,L:R:f:N:L,A:2:48,4 # shader L1 instruction cache config  {<nsets>:<bsize>:<assoc>,<rep>:<wr>:<alloc>:<wr_alloc>,<mshr>:<N>:<merge>,<mq>} 
-gpgpu_cache:dl1     64:128:6,L:L:m:N:H,A:128:8,8 # per-shader L1 data cache config  {<nsets>:<bsize>:<assoc>,<rep>:<wr>:<alloc>:<wr_alloc>,<mshr>:<N>:<merge>,<mq> | none}
-gpgpu_cache:dl1PrefL1                 none # per-shader L1 data cache config  {<nsets>:<bsize>:<assoc>,<rep>:<wr>:<alloc>:<wr_alloc>,<mshr>:<N>:<merge>,<mq> | none}
-gpgpu_cache:dl1PrefShared                 none # per-shader L1 data cache config  {<nsets>:<bsize>:<assoc>,<rep>:<wr>:<alloc>:<wr_alloc>,<mshr>:<N>:<merge>,<mq> | none}
-gmem_skip_L1D                          1 # global memory access skip L1D cache (implements -Xptxas -dlcm=cg, default=no skip)
-gpgpu_perfect_mem                      0 # enable perfect memory mode (no cache miss)
-n_regfile_gating_group                    4 # group of lanes that should be read/written together)
-gpgpu_clock_gated_reg_file                    0 # enable clock gated reg file for power calculations
-gpgpu_clock_gated_lanes                    0 # enable clock gated lanes for power calculations
-gpgpu_shader_registers                65536 # Number of registers per shader core. Limits number of concurrent CTAs. (default 8192)
-gpgpu_shader_cta                      32 # Maximum number of concurrent CTAs in shader (default 8)
-gpgpu_num_cta_barriers                   16 # Maximum number of named barriers per CTA (default 16)
-gpgpu_n_clusters                      28 # number of processing clusters
-gpgpu_n_cores_per_cluster                    1 # number of simd cores per cluster
-gpgpu_n_cluster_ejection_buffer_size                    8 # number of packets in ejection buffer
-gpgpu_n_ldst_response_buffer_size                    2 # number of response packets in ld/st unit ejection buffer
-gpgpu_shmem_size                   16384 # Size of shared memory per shader core (default 16kB)
-gpgpu_shmem_size                   98304 # Size of shared memory per shader core (default 16kB)
-gpgpu_shmem_size_PrefL1                16384 # Size of shared memory per shader core (default 16kB)
-gpgpu_shmem_size_PrefShared                16384 # Size of shared memory per shader core (default 16kB)
-gpgpu_shmem_num_banks                   32 # Number of banks in the shared memory in each shader core (default 16)
-gpgpu_shmem_limited_broadcast                    0 # Limit shared memory to do one broadcast per cycle (default on)
-gpgpu_shmem_warp_parts                    1 # Number of portions a warp is divided into for shared memory bank conflict check 
-gpgpu_warpdistro_shader                   -1 # Specify which shader core to collect the warp size distribution from
-gpgpu_warp_issue_shader                    0 # Specify which shader core to collect the warp issue distribution from
-gpgpu_local_mem_map                    1 # Mapping from local memory space address to simulated GPU physical address space (default = enabled)
-gpgpu_num_reg_banks                   32 # Number of register banks (default = 8)
-gpgpu_reg_bank_use_warp_id                    0 # Use warp ID in mapping registers to banks (default = off)
-gpgpu_operand_collector_num_units_sp                   20 # number of collector units (default = 4)
-gpgpu_operand_collector_num_units_sfu                    4 # number of collector units (default = 4)
-gpgpu_operand_collector_num_units_mem                    8 # number of collector units (default = 2)
-gpgpu_operand_collector_num_units_gen                    0 # number of collector units (default = 0)
-gpgpu_operand_collector_num_in_ports_sp                    4 # number of collector unit in ports (default = 1)
-gpgpu_operand_collector_num_in_ports_sfu                    1 # number of collector unit in ports (default = 1)
-gpgpu_operand_collector_num_in_ports_mem                    1 # number of collector unit in ports (default = 1)
-gpgpu_operand_collector_num_in_ports_gen                    0 # number of collector unit in ports (default = 0)
-gpgpu_operand_collector_num_out_ports_sp                    4 # number of collector unit in ports (default = 1)
-gpgpu_operand_collector_num_out_ports_sfu                    1 # number of collector unit in ports (default = 1)
-gpgpu_operand_collector_num_out_ports_mem                    1 # number of collector unit in ports (default = 1)
-gpgpu_operand_collector_num_out_ports_gen                    0 # number of collector unit in ports (default = 0)
-gpgpu_coalesce_arch                   13 # Coalescing arch (default = 13, anything else is off for now)
-gpgpu_num_sched_per_core                    2 # Number of warp schedulers per core
-gpgpu_max_insn_issue_per_warp                    2 # Max number of instructions that can be issued per warp in one cycle by scheduler
-gpgpu_simt_core_sim_order                    1 # Select the simulation order of cores in a cluster (0=Fix, 1=Round-Robin)
-gpgpu_pipeline_widths        4,1,1,4,1,1,6 # Pipeline widths ID_OC_SP,ID_OC_SFU,ID_OC_MEM,OC_EX_SP,OC_EX_SFU,OC_EX_MEM,EX_WB
-gpgpu_num_sp_units                     4 # Number of SP units (default=1)
-gpgpu_num_sfu_units                    1 # Number of SF units (default=1)
-gpgpu_num_mem_units                    1 # Number if ldst units (default=1) WARNING: not hooked up to anything
-gpgpu_scheduler                      gto # Scheduler configuration: < lrr | gto | two_level_active > If two_level_active:<num_active_warps>:<inner_prioritization>:<outer_prioritization>For complete list of prioritization values see shader.h enum scheduler_prioritization_typeDefault: gto
-gpgpu_concurrent_kernel_sm                    0 # Support concurrent kernels on a SM (default = disabled)
-tlb_size                            4096 # Number of tlb entries per SM.
-gpgpu_dram_scheduler                    1 # 0 = fifo, 1 = FR-FCFS (defaul)
-gpgpu_dram_partition_queues              8:8:8:8 # i2$:$2d:d2$:$2i
-l2_ideal                               0 # Use a ideal L2 cache that always hit
-gpgpu_cache:dl2     64:128:16,L:B:m:W:L,A:1024:1024,4:0,32 # unified banked L2 data cache config  {<nsets>:<bsize>:<assoc>,<rep>:<wr>:<alloc>:<wr_alloc>,<mshr>:<N>:<merge>,<mq>}
-gpgpu_cache:dl2_texture_only                    0 # L2 cache used for texture only
-gpgpu_n_mem                           11 # number of memory modules (e.g. memory controllers) in gpu
-gpgpu_n_sub_partition_per_mchannel                    2 # number of memory subpartition in each memory module
-gpgpu_n_mem_per_ctrlr                    1 # number of memory chips per memory controller
-gpgpu_memlatency_stat                   14 # track and display latency statistics 0x2 enables MC, 0x4 enables queue logs
-gpgpu_frfcfs_dram_sched_queue_size                   64 # 0 = unlimited (default); # entries per chip
-gpgpu_dram_return_queue_size                  116 # 0 = unlimited (default); # entries per chip
-gpgpu_dram_buswidth                    4 # default = 4 bytes (8 bytes per cycle at DDR)
-gpgpu_dram_burst_length                    8 # Burst length of each DRAM request (default = 4 data bus cycle)
-dram_data_command_freq_ratio                    4 # Frequency ratio between DRAM data bus and command bus (default = 2 times, i.e. DDR)
-gpgpu_dram_timing_opt nbk=16:CCD=2:RRD=6:RCD=12:RAS=28:RP=12:RC=40: CL=12:WL=4:CDLR=5:WR=12:nbkgrp=1:CCDL=0:RTPL=0 # DRAM timing parameters = {nbk:tCCD:tRRD:tRCD:tRAS:tRP:tRC:CL:WL:tCDLR:tWR:nbkgrp:tCCDL:tRTPL}
-rop_latency                          120 # ROP queue latency (default 85)
-dram_latency                         100 # DRAM latency (default 30)
-gpgpu_mem_addr_mapping dramid@8;00000000.00000000.00000000.00000000.0000RRRR.RRRRRRRR.RBBBCCCC.BCCSSSSS # mapping memory address to dram model {dramid@<start bit>;<memory address map>}
-gpgpu_mem_addr_test                    0 # run sweep test to check address mapping for aliased address
-gpgpu_mem_address_mask                    1 # 0 = old addressing mask, 1 = new addressing mask, 2 = new add. mask + flipped bank sel and chip sel bits
-gpuwattch_xml_file  gpuwattch_geforcegtx1080ti.xml # GPUWattch XML file
-power_simulation_enabled                    1 # Turn on power simulator (1=On, 0=Off)
-power_per_cycle_dump                    0 # Dump detailed power output each cycle
-power_trace_enabled                    0 # produce a file for the power trace (1=On, 0=Off)
-power_trace_zlevel                     6 # Compression level of the power trace output log (0=no comp, 9=highest)
-steady_power_levels_enabled                    0 # produce a file for the steady power levels (1=On, 0=Off)
-steady_state_definition                  8:4 # allowed deviation:number of samples
-gpgpu_max_cycle                        0 # terminates gpu simulation early (0 = no limit)
-gpgpu_max_insn                         0 # terminates gpu simulation early (0 = no limit)
-gpgpu_max_cta                          0 # terminates gpu simulation early (0 = no limit)
-gpgpu_runtime_stat                   500 # display runtime statistics such as dram utilization {<freq>:<flag>}
-liveness_message_freq                    1 # Minimum number of seconds between simulation liveness messages (0 = always print)
-gpgpu_flush_l1_cache                    0 # Flush L1 cache at the end of each kernel call
-gpgpu_flush_l2_cache                    0 # Flush L2 cache at the end of each kernel call
-gpgpu_deadlock_detect                    0 # Stop the simulation at deadlock (1=on (default), 0=off)
-gpgpu_ptx_instruction_classification                    0 # if enabled will classify ptx instruction types per kernel (Max 255 kernels now)
-gpgpu_ptx_sim_mode                     0 # Select between Performance (default) or Functional simulation (1)
-gpgpu_clock_domains 1481.0:2962.0:1481.0:2750.0 # Clock Domain Frequencies in MhZ {<Core Clock>:<ICNT Clock>:<L2 Clock>:<DRAM Clock>}
-gpgpu_max_concurrent_kernel                    8 # maximum kernels that can run concurrently on GPU
-gpgpu_cflog_interval                    0 # Interval between each snapshot in control flow logger
-visualizer_enabled                     0 # Turn on visualizer output (1=On, 0=Off)
-visualizer_outputfile                 NULL # Specifies the output log file for visualizer
-visualizer_zlevel                      6 # Compression level of the visualizer output log (0=no comp, 9=highest)
-trace_enabled                          0 # Turn on traces
-trace_components                    none # comma seperated list of traces to enable. Complete list found in trace_streams.tup. Default none
-trace_sampling_core                    0 # The core which is printed using CORE_DPRINTF. Default 0
-trace_sampling_memory_partition                   -1 # The memory partition which is printed using MEMPART_DPRINTF. Default -1 (i.e. all)
-gddr_size                       1.9968MB # Size of GDDR in MB/GB.(GLOBAL_HEAP_START, GLOBAL_HEAP_START + gddr_size) would be used for unmanged memory, (GLOBAL_HEAP_START + gddr_size, GLOBAL_HEAP_START + gddr_size*2) would be used for managed memory. 
-page_table_walk_latency                  100 # Average page table walk latency (in core cycle).
-eviction_policy                      lru # Memory eviction policy: lru or random.
-percentage_of_free_page_buffer                    0 # Percentage of free page buffer to trigger the page eviction.
-page_size                            4KB # GDDR page size, only 4KB/2MB avaliable.
-pcie_bandwith                   16.0GB/s # PCI-e bandwith per direction, in GB/s.
-sim_prof_enable                        1 # Enable gpgpu-sim profiler
-hardware_prefetch                      1 # Enable gpgpu-sim hardware prefetcher
-page_fault_latency                 66645 # Average fault latency (in core cycle).
-enable_accurate_simulation                    0 # Enable page fault functional simulation.
-enable_ptx_file_line_stats                    1 # Turn on PTX source line statistic profiling. (1 = On)
-ptx_line_stats_filename gpgpu_inst_stats.txt # Output file for PTX source line statistics.
-gpgpu_kernel_launch_latency               222150 # Kernel launch latency in cycles. Default: 0
-gpgpu_cdp_enabled                      0 # Turn on CDP
-save_embedded_ptx                      0 # saves ptx files embedded in binary as <n>.ptx
-keep                                   0 # keep intermediate files created by GPGPU-Sim when interfacing with external programs
-gpgpu_ptx_save_converted_ptxplus                    0 # Saved converted ptxplus to a file
-ptx_opcode_latency_int         4,13,4,5,145 # Opcode latencies for integers <ADD,MAX,MUL,MAD,DIV>Default 1,1,19,25,145
-ptx_opcode_latency_fp          4,13,4,5,39 # Opcode latencies for single precision floating points <ADD,MAX,MUL,MAD,DIV>Default 1,1,1,1,30
-ptx_opcode_latency_dp         8,19,8,8,330 # Opcode latencies for double precision floating points <ADD,MAX,MUL,MAD,DIV>Default 8,8,8,8,335
-ptx_opcode_initiation_int            1,2,2,2,8 # Opcode initiation intervals for integers <ADD,MAX,MUL,MAD,DIV>Default 1,1,4,4,32
-ptx_opcode_initiation_fp            1,2,1,1,4 # Opcode initiation intervals for single precision floating points <ADD,MAX,MUL,MAD,DIV>Default 1,1,1,1,5
-ptx_opcode_initiation_dp          1,2,1,1,130 # Opcode initiation intervals for double precision floating points <ADD,MAX,MUL,MAD,DIV>Default 8,8,8,8,130
-cdp_latency         7200,8000,100,12000,1600 # CDP API latency <cudaStreamCreateWithFlags, cudaGetParameterBufferV2_init_perWarp, cudaGetParameterBufferV2_perKernel, cudaLaunchDeviceV2_init_perWarp, cudaLaunchDevicV2_perKernel>Default 7200,8000,100,12000,1600
DRAM Timing Options:
nbk                                    16 # number of banks
CCD                                     2 # column to column delay
RRD                                     6 # minimal delay between activation of rows in different banks
RCD                                    12 # row to column delay
RAS                                    28 # time needed to activate row
RP                                     12 # time needed to precharge (deactivate) row
RC                                     40 # row cycle time
CDLR                                    5 # switching from write to read (changes tWTR)
WR                                     12 # last data-in to row precharge
CL                                     12 # CAS latency
WL                                      4 # Write latency
nbkgrp                                  1 # number of bank groups
CCDL                                    0 # column to column delay between accesses to different bank groups
RTPL                                    0 # read to precharge delay between accesses to different bank groups
Total number of memory sub partition = 22
addr_dec_mask[CHIP]  = 0000000000000000 	high:64 low:0
addr_dec_mask[BK]    = 0000000000007080 	high:15 low:7
addr_dec_mask[ROW]   = 000000000fff8000 	high:28 low:15
addr_dec_mask[COL]   = 0000000000000f7f 	high:12 low:0
addr_dec_mask[BURST] = 000000000000001f 	high:5 low:0
sub_partition_id_mask = 0000000000000080
GPGPU-Sim uArch: clock freqs: 1481000000.000000:2962000000.000000:1481000000.000000:2750000000.000000
GPGPU-Sim uArch: clock periods: 0.00000000067521944632:0.00000000033760972316:0.00000000067521944632:0.00000000036363636364
*** Initializing Memory Statistics ***
GPGPU-Sim uArch: interconnect node map (shaderID+MemID to icntID)
GPGPU-Sim uArch: Memory nodes ID start from index: 28
GPGPU-Sim uArch:    0   1   2   3   4   5   6
GPGPU-Sim uArch:    7   8   9  10  11  12  13
GPGPU-Sim uArch:   14  15  16  17  18  19  20
GPGPU-Sim uArch:   21  22  23  24  25  26  27
GPGPU-Sim uArch:   28  29  30  31  32  33  34
GPGPU-Sim uArch:   35  36  37  38  39  40  41
GPGPU-Sim uArch:   42  43  44  45  46  47  48
GPGPU-Sim uArch:   49
GPGPU-Sim uArch: interconnect node reverse map (icntID to shaderID+MemID)
GPGPU-Sim uArch: Memory nodes start from ID: 28
GPGPU-Sim uArch:    0   1   2   3   4   5   6
GPGPU-Sim uArch:    7   8   9  10  11  12  13
GPGPU-Sim uArch:   14  15  16  17  18  19  20
GPGPU-Sim uArch:   21  22  23  24  25  26  27
GPGPU-Sim uArch:   28  29  30  31  32  33  34
GPGPU-Sim uArch:   35  36  37  38  39  40  41
GPGPU-Sim uArch:   42  43  44  45  46  47  48
GPGPU-Sim uArch:   49
b8e22fd65d4cb3802c4b383a693718ba  /home/gpuser/Documents/gpgpu-sim_UVM_gddr0.8/benchmarks/Managed/bfs/bfs
GPGPU-Sim uArch: performance model initialization complete.
GPGPU-Sim PTX: __cudaRegisterFatBinary, fat_cubin_handle = 1, filename=default
self exe links to: /home/gpuser/Documents/gpgpu-sim_UVM_gddr0.8/benchmarks/Managed/bfs/bfs
Running md5sum using "md5sum /home/gpuser/Documents/gpgpu-sim_UVM_gddr0.8/benchmarks/Managed/bfs/bfs "
Parsing file _cuobjdump_complete_output_Rr4g7V
######### cuobjdump parser ########
## Adding new section ELF
Adding arch: sm_20
Adding identifier: default
## Adding new section ELF
Adding arch: sm_20
Adding identifier: default
## Adding new section PTX
Adding ptx filename: _cuobjdump_1.ptx
Adding arch: sm_20
Adding identifier: default
Done parsing!!!
GPGPU-Sim PTX: __cudaRegisterFunction _Z7Kernel2PbS_S_S_i : hostFun 0x0x401649, fat_cubin_handle = 1
GPGPU-Sim PTX: instruction assembly for function '_Z6KernelP4NodePiPbS2_S2_S1_i'...   done.
GPGPU-Sim PTX: finding reconvergence points for '_Z6KernelP4NodePiPbS2_S2_S1_i'...
GPGPU-Sim PTX: Finding dominators for '_Z6KernelP4NodePiPbS2_S2_S1_i'...
GPGPU-Sim PTX: Finding immediate dominators for '_Z6KernelP4NodePiPbS2_S2_S1_i'...
GPGPU-Sim PTX: Finding postdominators for '_Z6KernelP4NodePiPbS2_S2_S1_i'...
GPGPU-Sim PTX: Finding immediate postdominators for '_Z6KernelP4NodePiPbS2_S2_S1_i'...
GPGPU-Sim PTX: pre-decoding instructions for '_Z6KernelP4NodePiPbS2_S2_S1_i'...
GPGPU-Sim PTX: reconvergence points for _Z6KernelP4NodePiPbS2_S2_S1_i...
GPGPU-Sim PTX:  1 (potential) branch divergence @  PC=0x060 (_1.ptx:42) @%p1 bra BB0_7;
GPGPU-Sim PTX:    immediate post dominator      @  PC=0x1e8 (_1.ptx:101) ret;
GPGPU-Sim PTX:  2 (potential) branch divergence @  PC=0x090 (_1.ptx:49) @%p2 bra BB0_7;
GPGPU-Sim PTX:    immediate post dominator      @  PC=0x1e8 (_1.ptx:101) ret;
GPGPU-Sim PTX:  3 (potential) branch divergence @  PC=0x0d8 (_1.ptx:59) @%p3 bra BB0_7;
GPGPU-Sim PTX:    immediate post dominator      @  PC=0x1e8 (_1.ptx:101) ret;
GPGPU-Sim PTX:  4 (potential) branch divergence @  PC=0x160 (_1.ptx:79) @%p4 bra BB0_6;
GPGPU-Sim PTX:    immediate post dominator      @  PC=0x1b8 (_1.ptx:93) mov.u32 %r24, %r25;
GPGPU-Sim PTX:  5 (potential) branch divergence @  PC=0x1e0 (_1.ptx:98) @%p5 bra BB0_4;
GPGPU-Sim PTX:    immediate post dominator      @  PC=0x1e8 (_1.ptx:101) ret;
GPGPU-Sim PTX: ... end of reconvergence points for _Z6KernelP4NodePiPbS2_S2_S1_i
GPGPU-Sim PTX: ... done pre-decoding instructions for '_Z6KernelP4NodePiPbS2_S2_S1_i'.
GPGPU-Sim PTX: instruction assembly for function '_Z7Kernel2PbS_S_S_i'...   done.
GPGPU-Sim PTX: finding reconvergence points for '_Z7Kernel2PbS_S_S_i'...
GPGPU-Sim PTX: Finding dominators for '_Z7Kernel2PbS_S_S_i'...
GPGPU-Sim PTX: Finding immediate dominators for '_Z7Kernel2PbS_S_S_i'...
GPGPU-Sim PTX: Finding postdominators for '_Z7Kernel2PbS_S_S_i'...
GPGPU-Sim PTX: Finding immediate postdominators for '_Z7Kernel2PbS_S_S_i'...
GPGPU-Sim PTX: pre-decoding instructions for '_Z7Kernel2PbS_S_S_i'...
GPGPU-Sim PTX: reconvergence points for _Z7Kernel2PbS_S_S_i...
GPGPU-Sim PTX:  1 (potential) branch divergence @  PC=0x240 (_1.ptx:129) @%p1 bra BB1_3;
GPGPU-Sim PTX:    immediate post dominator      @  PC=0x2d0 (_1.ptx:151) ret;
GPGPU-Sim PTX:  2 (potential) branch divergence @  PC=0x270 (_1.ptx:136) @%p2 bra BB1_3;
GPGPU-Sim PTX:    immediate post dominator      @  PC=0x2d0 (_1.ptx:151) ret;
GPGPU-Sim PTX: ... end of reconvergence points for _Z7Kernel2PbS_S_S_i
GPGPU-Sim PTX: ... done pre-decoding instructions for '_Z7Kernel2PbS_S_S_i'.
GPGPU-Sim PTX: finished parsing EMBEDDED .ptx file _1.ptx
Adding _cuobjdump_1.ptx with cubin handle 1
GPGPU-Sim PTX: extracting embedded .ptx to temporary file "_ptx_difyzT"
Running: cat _ptx_difyzT | sed 's/.version 1.5/.version 1.4/' | sed 's/, texmode_independent//' | sed 's/\(\.extern \.const\[1\] .b8 \w\+\)\[\]/\1\[1\]/' | sed 's/const\[.\]/const\[0\]/g' > _ptx2_HuhR1Q
GPGPU-Sim PTX: generating ptxinfo using "$CUDA_INSTALL_PATH/bin/ptxas --gpu-name=sm_20 -v _ptx2_HuhR1Q --output-file  /dev/null 2> _ptx_difyzTinfo"
GPGPU-Sim PTX: Kernel '_Z7Kernel2PbS_S_S_i' : regs=12, lmem=0, smem=0, cmem=68
GPGPU-Sim PTX: Kernel '_Z6KernelP4NodePiPbS2_S2_S1_i' : regs=15, lmem=0, smem=0, cmem=84
GPGPU-Sim PTX: removing ptxinfo using "rm -f _ptx_difyzT _ptx2_HuhR1Q _ptx_difyzTinfo"
GPGPU-Sim PTX: loading globals with explicit initializers... 
GPGPU-Sim PTX: finished loading globals (0 bytes total).
GPGPU-Sim PTX: loading constants with explicit initializers...  done.
GPGPU-Sim PTX: __cudaRegisterFunction _Z6KernelP4NodePiPbS2_S2_S1_i : hostFun 0x0x401519, fat_cubin_handle = 1
Reading File
Read File
Copied Everything to GPU memory
Start traversing the tree

GPGPU-Sim PTX: cudaLaunch for 0x0x401519 (mode=performance simulation) on stream 0
GPGPU-Sim PTX: pushing kernel '_Z6KernelP4NodePiPbS2_S2_S1_i' to stream 0, gridDim= (128,1,1) blockDim = (512,1,1) 
GPGPU-Sim uArch: Shader 1 bind to kernel 1 '_Z6KernelP4NodePiPbS2_S2_S1_i'
GPGPU-Sim uArch: CTA/core = 4, limited by: threads
GPGPU-Sim uArch: Shader 2 bind to kernel 1 '_Z6KernelP4NodePiPbS2_S2_S1_i'
GPGPU-Sim uArch: Shader 3 bind to kernel 1 '_Z6KernelP4NodePiPbS2_S2_S1_i'
GPGPU-Sim uArch: Shader 4 bind to kernel 1 '_Z6KernelP4NodePiPbS2_S2_S1_i'
GPGPU-Sim uArch: Shader 5 bind to kernel 1 '_Z6KernelP4NodePiPbS2_S2_S1_i'
GPGPU-Sim uArch: Shader 6 bind to kernel 1 '_Z6KernelP4NodePiPbS2_S2_S1_i'
GPGPU-Sim uArch: Shader 7 bind to kernel 1 '_Z6KernelP4NodePiPbS2_S2_S1_i'
GPGPU-Sim uArch: Shader 8 bind to kernel 1 '_Z6KernelP4NodePiPbS2_S2_S1_i'
GPGPU-Sim uArch: Shader 9 bind to kernel 1 '_Z6KernelP4NodePiPbS2_S2_S1_i'
GPGPU-Sim uArch: Shader 10 bind to kernel 1 '_Z6KernelP4NodePiPbS2_S2_S1_i'
GPGPU-Sim uArch: Shader 11 bind to kernel 1 '_Z6KernelP4NodePiPbS2_S2_S1_i'
GPGPU-Sim uArch: Shader 12 bind to kernel 1 '_Z6KernelP4NodePiPbS2_S2_S1_i'
GPGPU-Sim uArch: Shader 13 bind to kernel 1 '_Z6KernelP4NodePiPbS2_S2_S1_i'
GPGPU-Sim uArch: Shader 14 bind to kernel 1 '_Z6KernelP4NodePiPbS2_S2_S1_i'
GPGPU-Sim uArch: Shader 15 bind to kernel 1 '_Z6KernelP4NodePiPbS2_S2_S1_i'
GPGPU-Sim uArch: Shader 16 bind to kernel 1 '_Z6KernelP4NodePiPbS2_S2_S1_i'
GPGPU-Sim uArch: Shader 17 bind to kernel 1 '_Z6KernelP4NodePiPbS2_S2_S1_i'
GPGPU-Sim uArch: Shader 18 bind to kernel 1 '_Z6KernelP4NodePiPbS2_S2_S1_i'
GPGPU-Sim uArch: Shader 19 bind to kernel 1 '_Z6KernelP4NodePiPbS2_S2_S1_i'
GPGPU-Sim uArch: Shader 20 bind to kernel 1 '_Z6KernelP4NodePiPbS2_S2_S1_i'
GPGPU-Sim uArch: Shader 21 bind to kernel 1 '_Z6KernelP4NodePiPbS2_S2_S1_i'
GPGPU-Sim uArch: Shader 22 bind to kernel 1 '_Z6KernelP4NodePiPbS2_S2_S1_i'
GPGPU-Sim uArch: Shader 23 bind to kernel 1 '_Z6KernelP4NodePiPbS2_S2_S1_i'
GPGPU-Sim uArch: Shader 24 bind to kernel 1 '_Z6KernelP4NodePiPbS2_S2_S1_i'
GPGPU-Sim uArch: Shader 25 bind to kernel 1 '_Z6KernelP4NodePiPbS2_S2_S1_i'
GPGPU-Sim uArch: Shader 26 bind to kernel 1 '_Z6KernelP4NodePiPbS2_S2_S1_i'
GPGPU-Sim uArch: Shader 27 bind to kernel 1 '_Z6KernelP4NodePiPbS2_S2_S1_i'
GPGPU-Sim uArch: Shader 0 bind to kernel 1 '_Z6KernelP4NodePiPbS2_S2_S1_i'
Destroy streams for kernel 1: size 0
kernel_name = _Z6KernelP4NodePiPbS2_S2_S1_i 
kernel_launch_uid = 1 
gpu_sim_cycle = 92832
gpu_sim_insn = 1245376
gpu_ipc =      13.4154
gpu_tot_sim_cycle = 317518
gpu_tot_sim_insn = 1245376
gpu_tot_ipc =       3.9222
gpu_tot_issued_cta = 128
max_total_param_size = 0
gpu_stall_dramfull = 0
gpu_stall_icnt2sh    = 2772
partiton_reqs_in_parallel = 2042304
partiton_reqs_in_parallel_total    = 0
partiton_level_parallism =      22.0000
partiton_level_parallism_total  =       6.4321
partiton_reqs_in_parallel_util = 2042304
partiton_reqs_in_parallel_util_total    = 0
gpu_sim_cycle_parition_util = 92832
gpu_tot_sim_cycle_parition_util    = 0
partiton_level_parallism_util =      22.0000
partiton_level_parallism_util_total  =      22.0000
partiton_replys_in_parallel = 2220
partiton_replys_in_parallel_total    = 0
L2_BW  =       2.2667 GB/Sec
L2_BW_total  =       0.6627 GB/Sec
gpu_total_sim_rate=9293

========= Core cache stats =========
L1I_cache:
	L1I_total_cache_accesses = 22632
	L1I_total_cache_misses = 2778
	L1I_total_cache_miss_rate = 0.1227
	L1I_total_cache_pending_hits = 0
	L1I_total_cache_reservation_fails = 6846
L1D_cache:
	L1D_cache_core[0]: Access = 0, Miss = 0, Miss_rate = -nan, Pending_hits = 0, Reservation_fails = 0
	L1D_cache_core[1]: Access = 0, Miss = 0, Miss_rate = -nan, Pending_hits = 0, Reservation_fails = 0
	L1D_cache_core[2]: Access = 0, Miss = 0, Miss_rate = -nan, Pending_hits = 0, Reservation_fails = 0
	L1D_cache_core[3]: Access = 0, Miss = 0, Miss_rate = -nan, Pending_hits = 0, Reservation_fails = 0
	L1D_cache_core[4]: Access = 0, Miss = 0, Miss_rate = -nan, Pending_hits = 0, Reservation_fails = 0
	L1D_cache_core[5]: Access = 0, Miss = 0, Miss_rate = -nan, Pending_hits = 0, Reservation_fails = 0
	L1D_cache_core[6]: Access = 0, Miss = 0, Miss_rate = -nan, Pending_hits = 0, Reservation_fails = 0
	L1D_cache_core[7]: Access = 0, Miss = 0, Miss_rate = -nan, Pending_hits = 0, Reservation_fails = 0
	L1D_cache_core[8]: Access = 0, Miss = 0, Miss_rate = -nan, Pending_hits = 0, Reservation_fails = 0
	L1D_cache_core[9]: Access = 0, Miss = 0, Miss_rate = -nan, Pending_hits = 0, Reservation_fails = 0
	L1D_cache_core[10]: Access = 0, Miss = 0, Miss_rate = -nan, Pending_hits = 0, Reservation_fails = 0
	L1D_cache_core[11]: Access = 0, Miss = 0, Miss_rate = -nan, Pending_hits = 0, Reservation_fails = 0
	L1D_cache_core[12]: Access = 0, Miss = 0, Miss_rate = -nan, Pending_hits = 0, Reservation_fails = 0
	L1D_cache_core[13]: Access = 0, Miss = 0, Miss_rate = -nan, Pending_hits = 0, Reservation_fails = 0
	L1D_cache_core[14]: Access = 0, Miss = 0, Miss_rate = -nan, Pending_hits = 0, Reservation_fails = 0
	L1D_cache_core[15]: Access = 0, Miss = 0, Miss_rate = -nan, Pending_hits = 0, Reservation_fails = 0
	L1D_cache_core[16]: Access = 0, Miss = 0, Miss_rate = -nan, Pending_hits = 0, Reservation_fails = 0
	L1D_cache_core[17]: Access = 0, Miss = 0, Miss_rate = -nan, Pending_hits = 0, Reservation_fails = 0
	L1D_cache_core[18]: Access = 0, Miss = 0, Miss_rate = -nan, Pending_hits = 0, Reservation_fails = 0
	L1D_cache_core[19]: Access = 0, Miss = 0, Miss_rate = -nan, Pending_hits = 0, Reservation_fails = 0
	L1D_cache_core[20]: Access = 0, Miss = 0, Miss_rate = -nan, Pending_hits = 0, Reservation_fails = 0
	L1D_cache_core[21]: Access = 0, Miss = 0, Miss_rate = -nan, Pending_hits = 0, Reservation_fails = 0
	L1D_cache_core[22]: Access = 0, Miss = 0, Miss_rate = -nan, Pending_hits = 0, Reservation_fails = 0
	L1D_cache_core[23]: Access = 0, Miss = 0, Miss_rate = -nan, Pending_hits = 0, Reservation_fails = 0
	L1D_cache_core[24]: Access = 0, Miss = 0, Miss_rate = -nan, Pending_hits = 0, Reservation_fails = 0
	L1D_cache_core[25]: Access = 0, Miss = 0, Miss_rate = -nan, Pending_hits = 0, Reservation_fails = 0
	L1D_cache_core[26]: Access = 0, Miss = 0, Miss_rate = -nan, Pending_hits = 0, Reservation_fails = 0
	L1D_cache_core[27]: Access = 0, Miss = 0, Miss_rate = -nan, Pending_hits = 0, Reservation_fails = 0
	L1D_total_cache_accesses = 0
	L1D_total_cache_misses = 0
	L1D_total_cache_pending_hits = 0
	L1D_total_cache_reservation_fails = 0
	L1D_cache_data_port_util = 0.000
	L1D_cache_fill_port_util = 0.000
L1C_cache:
	L1C_total_cache_accesses = 14336
	L1C_total_cache_misses = 1792
	L1C_total_cache_miss_rate = 0.1250
	L1C_total_cache_pending_hits = 0
	L1C_total_cache_reservation_fails = 4886
L1T_cache:
	L1T_total_cache_accesses = 0
	L1T_total_cache_misses = 0
	L1T_total_cache_pending_hits = 0
	L1T_total_cache_reservation_fails = 0

Total_core_cache_stats:
	Total_core_cache_stats_breakdown[GLOBAL_ACC_R][HIT] = 0
	Total_core_cache_stats_breakdown[GLOBAL_ACC_R][HIT_RESERVED] = 0
	Total_core_cache_stats_breakdown[GLOBAL_ACC_R][MISS] = 0
	Total_core_cache_stats_breakdown[GLOBAL_ACC_R][RESERVATION_FAIL] = 0
	Total_core_cache_stats_breakdown[LOCAL_ACC_R][HIT] = 0
	Total_core_cache_stats_breakdown[LOCAL_ACC_R][HIT_RESERVED] = 0
	Total_core_cache_stats_breakdown[LOCAL_ACC_R][MISS] = 0
	Total_core_cache_stats_breakdown[LOCAL_ACC_R][RESERVATION_FAIL] = 0
	Total_core_cache_stats_breakdown[CONST_ACC_R][HIT] = 12544
	Total_core_cache_stats_breakdown[CONST_ACC_R][HIT_RESERVED] = 0
	Total_core_cache_stats_breakdown[CONST_ACC_R][MISS] = 1792
	Total_core_cache_stats_breakdown[CONST_ACC_R][RESERVATION_FAIL] = 4886
	Total_core_cache_stats_breakdown[TEXTURE_ACC_R][HIT] = 0
	Total_core_cache_stats_breakdown[TEXTURE_ACC_R][HIT_RESERVED] = 0
	Total_core_cache_stats_breakdown[TEXTURE_ACC_R][MISS] = 0
	Total_core_cache_stats_breakdown[TEXTURE_ACC_R][RESERVATION_FAIL] = 0
	Total_core_cache_stats_breakdown[GLOBAL_ACC_W][HIT] = 0
	Total_core_cache_stats_breakdown[GLOBAL_ACC_W][HIT_RESERVED] = 0
	Total_core_cache_stats_breakdown[GLOBAL_ACC_W][MISS] = 0
	Total_core_cache_stats_breakdown[GLOBAL_ACC_W][RESERVATION_FAIL] = 0
	Total_core_cache_stats_breakdown[LOCAL_ACC_W][HIT] = 0
	Total_core_cache_stats_breakdown[LOCAL_ACC_W][HIT_RESERVED] = 0
	Total_core_cache_stats_breakdown[LOCAL_ACC_W][MISS] = 0
	Total_core_cache_stats_breakdown[LOCAL_ACC_W][RESERVATION_FAIL] = 0
	Total_core_cache_stats_breakdown[L1_WRBK_ACC][HIT] = 0
	Total_core_cache_stats_breakdown[L1_WRBK_ACC][HIT_RESERVED] = 0
	Total_core_cache_stats_breakdown[L1_WRBK_ACC][MISS] = 0
	Total_core_cache_stats_breakdown[L1_WRBK_ACC][RESERVATION_FAIL] = 0
	Total_core_cache_stats_breakdown[L2_WRBK_ACC][HIT] = 0
	Total_core_cache_stats_breakdown[L2_WRBK_ACC][HIT_RESERVED] = 0
	Total_core_cache_stats_breakdown[L2_WRBK_ACC][MISS] = 0
	Total_core_cache_stats_breakdown[L2_WRBK_ACC][RESERVATION_FAIL] = 0
	Total_core_cache_stats_breakdown[INST_ACC_R][HIT] = 19854
	Total_core_cache_stats_breakdown[INST_ACC_R][HIT_RESERVED] = 0
	Total_core_cache_stats_breakdown[INST_ACC_R][MISS] = 2778
	Total_core_cache_stats_breakdown[INST_ACC_R][RESERVATION_FAIL] = 6846
	Total_core_cache_stats_breakdown[L1_WR_ALLOC_R][HIT] = 0
	Total_core_cache_stats_breakdown[L1_WR_ALLOC_R][HIT_RESERVED] = 0
	Total_core_cache_stats_breakdown[L1_WR_ALLOC_R][MISS] = 0
	Total_core_cache_stats_breakdown[L1_WR_ALLOC_R][RESERVATION_FAIL] = 0
	Total_core_cache_stats_breakdown[L2_WR_ALLOC_R][HIT] = 0
	Total_core_cache_stats_breakdown[L2_WR_ALLOC_R][HIT_RESERVED] = 0
	Total_core_cache_stats_breakdown[L2_WR_ALLOC_R][MISS] = 0
	Total_core_cache_stats_breakdown[L2_WR_ALLOC_R][RESERVATION_FAIL] = 0
	Total_core_cache_stats_breakdown[CONST_ACC_R][TOTAL_ACCESS] = 14336
	Total_core_cache_stats_breakdown[INST_ACC_R][TOTAL_ACCESS] = 22632
Shader 0 warp_id issue ditsribution:
warp_id:
0, 1, 2, 3, 4, 5, 6, 7, 8, 9, 10, 11, 12, 13, 14, 15, 16, 17, 18, 19, 20, 21, 22, 23, 24, 25, 26, 27, 28, 29, 30, 31, 32, 33, 34, 35, 36, 37, 38, 39, 40, 41, 42, 43, 44, 45, 46, 47, 48, 49, 50, 51, 52, 53, 54, 55, 56, 57, 58, 59, 60, 61, 62, 63, 
distro:
23, 23, 22, 23, 22, 23, 22, 23, 23, 23, 23, 23, 23, 23, 23, 23, 23, 23, 23, 23, 23, 23, 23, 23, 23, 23, 23, 23, 23, 23, 23, 23, 23, 23, 23, 23, 23, 23, 23, 23, 23, 23, 23, 23, 23, 23, 23, 23, 23, 23, 23, 23, 23, 23, 23, 23, 23, 23, 23, 23, 23, 23, 23, 23, 
gpgpu_n_tot_thrd_icount = 1317216
gpgpu_n_tot_w_icount = 41163
gpgpu_n_stall_shd_mem = 5399
gpgpu_n_mem_read_local = 0
gpgpu_n_mem_write_local = 0
gpgpu_n_mem_read_global = 2090
gpgpu_n_mem_write_global = 17
gpgpu_n_mem_texture = 0
gpgpu_n_mem_const = 28
gpgpu_n_load_insn  = 65578
gpgpu_n_store_insn = 17
gpgpu_n_shmem_insn = 0
gpgpu_n_tex_insn = 0
gpgpu_n_const_mem_insn = 0
gpgpu_n_param_mem_insn = 458752
gpgpu_n_shmem_bkconflict = 0
gpgpu_n_cache_bkconflict = 0
gpgpu_n_intrawarp_mshr_merge = 0
gpgpu_n_cmem_portconflict = 4886
gpgpu_stall_shd_mem[c_mem][bk_conf] = 4886
gpgpu_stall_shd_mem[c_mem][mshr_rc] = 0
gpgpu_stall_shd_mem[c_mem][icnt_rc] = 0
gpgpu_stall_shd_mem[c_mem][data_port_stall] = 0
gpgpu_stall_shd_mem[t_mem][mshr_rc] = 0
gpgpu_stall_shd_mem[t_mem][icnt_rc] = 0
gpgpu_stall_shd_mem[t_mem][data_port_stall] = 0
gpgpu_stall_shd_mem[s_mem][bk_conf] = 0
gpgpu_stall_shd_mem[gl_mem][bk_conf] = 0
gpgpu_stall_shd_mem[gl_mem][coal_stall] = 0
gpgpu_stall_shd_mem[gl_mem][data_port_stall] = 0
gpgpu_stall_shd_mem[g_mem_ld][mshr_rc] = 0
gpgpu_stall_shd_mem[g_mem_ld][icnt_rc] = 513
gpgpu_stall_shd_mem[g_mem_ld][wb_icnt_rc] = 0
gpgpu_stall_shd_mem[g_mem_ld][wb_rsrv_fail] = 0
gpgpu_stall_shd_mem[g_mem_st][mshr_rc] = 0
gpgpu_stall_shd_mem[g_mem_st][icnt_rc] = 0
gpgpu_stall_shd_mem[g_mem_st][wb_icnt_rc] = 0
gpgpu_stall_shd_mem[g_mem_st][wb_rsrv_fail] = 0
gpgpu_stall_shd_mem[l_mem_ld][mshr_rc] = 0
gpgpu_stall_shd_mem[l_mem_ld][icnt_rc] = 0
gpgpu_stall_shd_mem[l_mem_ld][wb_icnt_rc] = 0
gpgpu_stall_shd_mem[l_mem_ld][wb_rsrv_fail] = 0
gpgpu_stall_shd_mem[l_mem_st][mshr_rc] = 0
gpgpu_stall_shd_mem[l_mem_st][icnt_rc] = 0
gpgpu_stall_shd_mem[l_mem_ld][wb_icnt_rc] = 0
gpgpu_stall_shd_mem[l_mem_ld][wb_rsrv_fail] = 0
gpu_reg_bank_conflict_stalls = 0
Warp Occupancy Distribution:
Stall:16008	W0_Idle:139729	W0_Scoreboard:624094	W1:203	W2:0	W3:0	W4:0	W5:0	W6:0	W7:0	W8:0	W9:0	W10:0	W11:0	W12:0	W13:0	W14:0	W15:0	W16:0	W17:0	W18:0	W19:0	W20:0	W21:0	W22:0	W23:0	W24:0	W25:0	W26:0	W27:0	W28:0	W29:0	W30:0	W31:0	W32:40960
traffic_breakdown_coretomem[CONST_ACC_R] = 224 {8:28,}
traffic_breakdown_coretomem[GLOBAL_ACC_R] = 16720 {8:2090,}
traffic_breakdown_coretomem[GLOBAL_ACC_W] = 680 {40:17,}
traffic_breakdown_coretomem[INST_ACC_R] = 680 {8:85,}
traffic_breakdown_memtocore[CONST_ACC_R] = 2016 {72:28,}
traffic_breakdown_memtocore[GLOBAL_ACC_R] = 83600 {40:2090,}
traffic_breakdown_memtocore[GLOBAL_ACC_W] = 136 {8:17,}
traffic_breakdown_memtocore[INST_ACC_R] = 11560 {136:85,}
maxmrqlatency = 72 
maxdqlatency = 0 
maxmflatency = 41714 
averagemflatency = 8185 
max_icnt2mem_latency = 41479 
max_icnt2sh_latency = 317517 
mrq_lat_table:166 	40 	49 	64 	73 	154 	14 	0 	0 	0 	0 	0 	0 	0 	0 	0 	0 	0 	0 	0 	0 	0 	0 	0 	0 	0 	0 	0 	0 	0 	0 	0 	
dq_lat_table:0 	0 	0 	0 	0 	0 	0 	0 	0 	0 	0 	0 	0 	0 	0 	0 	0 	0 	0 	0 	0 	0 	0 	0 	0 	0 	0 	0 	0 	0 	0 	0 	
mf_lat_table:0 	0 	0 	0 	0 	0 	0 	62 	5 	0 	0 	512 	257 	1292 	4 	3 	0 	0 	0 	0 	0 	0 	0 	0 	0 	0 	0 	0 	0 	0 	0 	0 	
icnt2mem_lat_table:0 	0 	103 	24 	20 	0 	5 	0 	0 	0 	0 	512 	258 	1291 	4 	3 	0 	0 	0 	0 	0 	0 	0 	0 	
icnt2sh_lat_table:0 	0 	482 	1013 	617 	6 	0 	0 	0 	0 	0 	0 	0 	0 	0 	0 	0 	1 	16 	0 	0 	0 	0 	0 	
mf_lat_pw_table:0 	0 	0 	0 	0 	0 	0 	13 	0 	0 	0 	2 	2 	6 	1 	1 	0 	0 	0 	0 	0 	0 	0 	0 	0 	0 	0 	0 	0 	0 	0 	0 	
maximum concurrent accesses to same row:
dram[0]:         1         0         0         0         0         0         0         0         0         0         0         0         0         0         0         0 
dram[1]:         0         0        16         0         0         0         0         0         0         0         0         0         0         0         0         0 
dram[2]:         0         0         0         0         0         0         0         0         0         0         0         0         0         0         0         0 
dram[3]:         0         0         0         0         0         0         0         0         0         0         0         0         0         0         0         0 
dram[4]:         0         0         0         0         0         0         0         0         0         0         0         0         0         0         0         0 
dram[5]:         0         0         0         0         0         0         0         0         0         0         1         0         0         0         0         0 
dram[6]:         0         0         0        16         0         0         0         0         0         0         0         0         0         0         0         0 
dram[7]:         0         0         0         0         0         0         0         0         0         0         0         0         0         0         0         0 
dram[8]:         0         0         0         0         0         0         0         0         0         0         0         0         0         0         0         0 
dram[9]:         0         0         0         0         0         0         0         0         0         0         0         0         0         0         0         0 
dram[10]:         0         0         0         0         0         0         0         0         0         0         0         0         0         0         0         0 
maximum service time to same row:
dram[0]:      4581      4580      4581      4585     11505     11508     36565         0         0         0         0         0         0         0         0         0 
dram[1]:      4580      4584     68221      4598     11513     11515         0         0     49316         0         0         0         0         0         0         0 
dram[2]:      4580      4584      4582      4587     11529     11531     46035         0         0         0         0         0         0         0         0         0 
dram[3]:      4580      4584      4592      4603     11535     11538         0         0     54275         0         0         0         0     92819         0         0 
dram[4]:      4580      4584      4582      4587     11531     11533         0         0         0         0         0         0         0         0       228       789 
dram[5]:      4580      4584      4592      4605     11527     11530         0     64579         0     54277     14050         0         0         0     14313      4839 
dram[6]:      4581      4585      4580     68228     11507     11517         0         0     51680         0         0         0         0         0         0         0 
dram[7]:      4580      4584      4588      4596     11524     11528     64576         0         0         0     84579         0         0         0         0         0 
dram[8]:      4580      4582      4612      4615     11512     11514         0         0         0         0         0     46748         0         0         0         0 
dram[9]:      4580      4581      4617      4620     11516     11518         0         0     50172         0     84581         0         0         0         0         0 
dram[10]:      4580      4581      4605      4607     11528     11530         0     47604     48460     50926         0         0         0     84582         0         0 
average row accesses per activate:
dram[0]:  5.000000  4.000000 16.000000 16.000000  3.000000  3.000000  1.000000      -nan      -nan      -nan      -nan      -nan      -nan      -nan      -nan      -nan 
dram[1]:  4.000000  4.000000  9.000000 16.000000  3.000000  3.000000      -nan      -nan  1.000000      -nan      -nan      -nan      -nan      -nan      -nan      -nan 
dram[2]:  4.000000  4.000000 16.000000 16.000000  3.000000  3.000000  1.000000      -nan      -nan      -nan      -nan      -nan      -nan      -nan      -nan      -nan 
dram[3]:  4.000000  4.000000 16.000000 16.000000  5.000000  3.000000      -nan      -nan  2.000000      -nan      -nan      -nan      -nan  2.000000      -nan      -nan 
dram[4]:  4.000000  4.000000 16.000000 16.000000  3.000000  3.000000      -nan      -nan      -nan      -nan      -nan      -nan      -nan      -nan  1.000000  1.000000 
dram[5]:  4.000000  4.000000 16.000000 16.000000  3.000000  3.000000      -nan  2.000000      -nan  2.000000  1.000000      -nan      -nan      -nan  1.000000  1.000000 
dram[6]:  4.000000  4.000000 16.000000  9.000000  5.000000  3.000000      -nan      -nan  1.000000      -nan      -nan      -nan      -nan      -nan      -nan      -nan 
dram[7]:  5.000000  5.000000 16.000000 16.000000  3.000000  7.000000  2.000000      -nan      -nan      -nan  2.000000      -nan      -nan      -nan      -nan      -nan 
dram[8]:  5.000000  5.000000 16.000000 16.000000  5.000000  3.000000      -nan      -nan      -nan      -nan      -nan  1.000000      -nan      -nan      -nan      -nan 
dram[9]:  5.000000  5.000000 16.000000 16.000000  5.000000  3.000000      -nan      -nan  1.000000      -nan  2.000000      -nan      -nan      -nan      -nan      -nan 
dram[10]:  5.000000  5.000000 16.000000 16.000000  2.000000  2.000000      -nan  1.000000  1.000000  1.000000      -nan      -nan      -nan  2.000000      -nan      -nan 
average row locality = 560/91 = 6.153846
number of total memory accesses made:
dram[0]:         0         0         0         0         0         0         0         0         0         0         0         0         0         0         0         0 
dram[1]:         0         0         0         0         0         0         0         0         0         0         0         0         0         0         0         0 
dram[2]:         0         0         0         0         0         0         0         0         0         0         0         0         0         0         0         0 
dram[3]:         0         0         0         0         0         0         0         0         0         0         0         0         0         0         0         0 
dram[4]:         0         0         0         0         0         0         0         0         0         0         0         0         0         0         0         0 
dram[5]:         0         0         0         0         0         0         0         0         0         0         0         0         0         0         0         0 
dram[6]:         0         0         0         0         0         0         0         0         0         0         0         0         0         0         0         0 
dram[7]:         0         0         0         0         0         0         0         0         0         0         0         0         0         0         0         0 
dram[8]:         0         0         0         0         0         0         0         0         0         0         0         0         0         0         0         0 
dram[9]:         0         0         0         0         0         0         0         0         0         0         0         0         0         0         0         0 
dram[10]:         0         0         0         0         0         0         0         0         0         0         0         0         0         0         0         0 
total accesses: 0
min_bank_accesses = 0!
min_chip_accesses = 0!
number of total read accesses:
dram[0]:         5         4        16        16         3         3         1         0         0         0         0         0         0         0         0         0 
dram[1]:         4         4        17        16         3         3         0         0         1         0         0         0         0         0         0         0 
dram[2]:         4         4        16        16         3         3         1         0         0         0         0         0         0         0         0         0 
dram[3]:         4         4        16        16         4         3         0         0         1         0         0         0         0         1         0         0 
dram[4]:         4         4        16        16         3         3         0         0         0         0         0         0         0         0         1         1 
dram[5]:         4         4        16        16         3         3         0         1         0         1         2         0         0         0         1         1 
dram[6]:         4         4        16        17         4         3         0         0         1         0         0         0         0         0         0         0 
dram[7]:         5         5        16        16         3         5         1         0         0         0         1         0         0         0         0         0 
dram[8]:         5         5        16        16         4         3         0         0         0         0         0         1         0         0         0         0 
dram[9]:         5         5        16        16         4         3         0         0         1         0         1         0         0         0         0         0 
dram[10]:         5         5        16        16         2         2         0         1         1         1         0         0         0         1         0         0 
total reads: 544
min_bank_accesses = 0!
chip skew: 52/47 = 1.11
number of total write accesses:
dram[0]:         0         0         0         0         0         0         0         0         0         0         0         0         0         0         0         0 
dram[1]:         0         0         1         0         0         0         0         0         0         0         0         0         0         0         0         0 
dram[2]:         0         0         0         0         0         0         0         0         0         0         0         0         0         0         0         0 
dram[3]:         0         0         0         0         1         0         0         0         1         0         0         0         0         1         0         0 
dram[4]:         0         0         0         0         0         0         0         0         0         0         0         0         0         0         0         0 
dram[5]:         0         0         0         0         0         0         0         1         0         1         0         0         0         0         0         0 
dram[6]:         0         0         0         1         1         0         0         0         0         0         0         0         0         0         0         0 
dram[7]:         0         0         0         0         0         2         1         0         0         0         1         0         0         0         0         0 
dram[8]:         0         0         0         0         1         0         0         0         0         0         0         0         0         0         0         0 
dram[9]:         0         0         0         0         1         0         0         0         0         0         1         0         0         0         0         0 
dram[10]:         0         0         0         0         0         0         0         0         0         0         0         0         0         1         0         0 
total reads: 16
min_bank_accesses = 0!
min_chip_accesses = 0!
average mf latency per bank:
dram[0]:      13393     15069     38809     38951     26084     26178     11647    none      none      none      none      none      none      none      none      none  
dram[1]:      15016     15070     35857     38914     26050     26026    none      none         352    none      none      none      none      none      none      none  
dram[2]:      15010     15058     38799     38900     26298     26298     10367    none      none      none      none      none      none      none      none      none  
dram[3]:      15003     15064     38797     38889     18286     26206    none      none        3246    none      none      none      none       20857    none      none  
dram[4]:      15001     15051     38781     38925     26087     26158    none      none      none      none      none      none      none      none           0         0
dram[5]:      14991     15050     40561     40677     26085     26109    none        8818    none        4103     11484    none      none      none           0         0
dram[6]:      15026     15069     40566     37588     18589     26364    none      none         250    none      none      none      none      none      none      none  
dram[7]:      15035     15078     40565     40694     26035     14558      7961    none      none      none       16360    none      none      none      none      none  
dram[8]:      14994     15075     40579     40700     17989     26172    none      none      none      none      none         352    none      none      none      none  
dram[9]:      15010     15094     40566     40703     18746     26254    none      none         352    none       17115    none      none      none      none      none  
dram[10]:      15004     15099     40528     40674     26265     26288    none         352       352       250    none      none      none       17543    none      none  
maximum mf latency per bank:
dram[0]:       3789      3787     10638     10684      6574      6615     11647         0         0         0         0         0         0         0         0         0
dram[1]:       3782      3800     24177     10684      6603      6609         0         0       352         0         0         0         0         0         0         0
dram[2]:       3773      3788     10640     10682      6629      6633      9457         0         0         0         0         0         0         0         0         0
dram[3]:       3780      3796     10627     10672     12695      6603         0         0      6492         0         0         0         0     41714         0         0
dram[4]:       3770      3785     10629     10683      6601      6626         0         0         0         0         0         0         0         0         0         0
dram[5]:       3777      3793     10647     10688      6598      6609         0     17637         0      8206     10421         0         0         0         0         0
dram[6]:       3775      3790     10669     25891     14201      6630         0         0       250         0         0         0         0         0         0         0
dram[7]:       3780      3800     10670     10710      6570     13452     15923         0         0         0     32720         0         0         0         0         0
dram[8]:       3788      3808     10668     10713     11618      6620         0         0         0         0         0       352         0         0         0         0
dram[9]:       3784      3808     10684     10728     15060      6626         0         0       352         0     34230         0         0         0         0         0
dram[10]:       3786      3811     10637     10699      6604      6622         0       352       352       250         0         0         0     35087         0         0
Memory Partition 0: 
Cache L2_bank_000:
MSHR contents

Cache L2_bank_001:
MSHR contents

In Dram Latency Queue (total = 0): 
DRAM[0]: 16 bks, busW=4 BL=8 CL=12, tRRD=2 tCCD=6, tRCD=12 tRAS=28 tRP=12 tRC=40
n_cmd=172374 n_nop=172173 n_act=8 n_pre=1 n_req=48 n_rd=192 n_write=0 bw_util=0.002228
n_activity=480 dram_eff=0.8
bk0: 20a 172300i bk1: 16a 172300i bk2: 64a 172174i bk3: 64a 172060i bk4: 12a 172238i bk5: 12a 172218i bk6: 4a 172353i bk7: 0a 172373i bk8: 0a 172373i bk9: 0a 172373i bk10: 0a 172373i bk11: 0a 172374i bk12: 0a 172374i bk13: 0a 172374i bk14: 0a 172375i bk15: 0a 172377i 
dram_util_bins: 0 0 0 0 0 0 0 0 0 0
dram_eff_bins: 0 0 0 0 0 0 0 0 0 0
mrqq: max=10 avg=0.0100827
Memory Partition 1: 
Cache L2_bank_002:
MSHR contents

Cache L2_bank_003:
MSHR contents

In Dram Latency Queue (total = 0): 
DRAM[1]: 16 bks, busW=4 BL=8 CL=12, tRRD=2 tCCD=6, tRCD=12 tRAS=28 tRP=12 tRC=40
n_cmd=172374 n_nop=172172 n_act=8 n_pre=1 n_req=49 n_rd=192 n_write=1 bw_util=0.002239
n_activity=492 dram_eff=0.7846
bk0: 16a 172333i bk1: 16a 172307i bk2: 68a 172150i bk3: 64a 172082i bk4: 12a 172251i bk5: 12a 172231i bk6: 0a 172372i bk7: 0a 172373i bk8: 4a 172353i bk9: 0a 172371i bk10: 0a 172372i bk11: 0a 172372i bk12: 0a 172374i bk13: 0a 172375i bk14: 0a 172376i bk15: 0a 172376i 
dram_util_bins: 0 0 0 0 0 0 0 0 0 0
dram_eff_bins: 0 0 0 0 0 0 0 0 0 0
mrqq: max=11 avg=0.00980426
Memory Partition 2: 
Cache L2_bank_004:
MSHR contents

Cache L2_bank_005:
MSHR contents

In Dram Latency Queue (total = 0): 
DRAM[2]: 16 bks, busW=4 BL=8 CL=12, tRRD=2 tCCD=6, tRCD=12 tRAS=28 tRP=12 tRC=40
n_cmd=172374 n_nop=172179 n_act=7 n_pre=0 n_req=47 n_rd=188 n_write=0 bw_util=0.002181
n_activity=440 dram_eff=0.8545
bk0: 16a 172329i bk1: 16a 172305i bk2: 64a 172180i bk3: 64a 172064i bk4: 12a 172282i bk5: 12a 172262i bk6: 4a 172353i bk7: 0a 172372i bk8: 0a 172372i bk9: 0a 172373i bk10: 0a 172373i bk11: 0a 172373i bk12: 0a 172374i bk13: 0a 172374i bk14: 0a 172374i bk15: 0a 172375i 
dram_util_bins: 0 0 0 0 0 0 0 0 0 0
dram_eff_bins: 0 0 0 0 0 0 0 0 0 0
mrqq: max=10 avg=0.00945038
Memory Partition 3: 
Cache L2_bank_006:
MSHR contents

Cache L2_bank_007:
MSHR contents
MSHR: tag=0x804d3280, atomic=0 1 entries : 0x7f1e1f034d30 :  mf: uid= 50823, sid01:w00, part=3, addr=0x804d32a0, load , size=32, unknown  status = IN_PARTITION_DRAM (317517), 

In Dram Latency Queue (total = 0): 
DRAM[3]: 16 bks, busW=4 BL=8 CL=12, tRRD=2 tCCD=6, tRCD=12 tRAS=28 tRP=12 tRC=40
n_cmd=172374 n_nop=172168 n_act=8 n_pre=0 n_req=52 n_rd=195 n_write=3 bw_util=0.002297
n_activity=492 dram_eff=0.8049
bk0: 16a 172331i bk1: 16a 172307i bk2: 64a 172195i bk3: 64a 172093i bk4: 16a 172276i bk5: 12a 172275i bk6: 0a 172374i bk7: 0a 172374i bk8: 4a 172348i bk9: 0a 172372i bk10: 0a 172373i bk11: 0a 172373i bk12: 0a 172373i bk13: 3a 172350i bk14: 0a 172372i bk15: 0a 172373i 
dram_util_bins: 0 0 0 0 0 0 0 0 0 0
dram_eff_bins: 0 0 0 0 0 0 0 0 0 0
mrqq: max=9 avg=0.00900368
Memory Partition 4: 
Cache L2_bank_008:
MSHR contents

Cache L2_bank_009:
MSHR contents

In Dram Latency Queue (total = 0): 
DRAM[4]: 16 bks, busW=4 BL=8 CL=12, tRRD=2 tCCD=6, tRCD=12 tRAS=28 tRP=12 tRC=40
n_cmd=172374 n_nop=172174 n_act=8 n_pre=0 n_req=48 n_rd=192 n_write=0 bw_util=0.002228
n_activity=480 dram_eff=0.8
bk0: 16a 172328i bk1: 16a 172304i bk2: 64a 172179i bk3: 64a 172064i bk4: 12a 172285i bk5: 12a 172265i bk6: 0a 172372i bk7: 0a 172373i bk8: 0a 172374i bk9: 0a 172374i bk10: 0a 172374i bk11: 0a 172374i bk12: 0a 172374i bk13: 0a 172375i bk14: 4a 172355i bk15: 4a 172355i 
dram_util_bins: 0 0 0 0 0 0 0 0 0 0
dram_eff_bins: 0 0 0 0 0 0 0 0 0 0
mrqq: max=11 avg=0.00994349
Memory Partition 5: 
Cache L2_bank_010:
MSHR contents

Cache L2_bank_011:
MSHR contents

In Dram Latency Queue (total = 0): 
DRAM[5]: 16 bks, busW=4 BL=8 CL=12, tRRD=2 tCCD=6, tRCD=12 tRAS=28 tRP=12 tRC=40
n_cmd=172374 n_nop=172151 n_act=12 n_pre=1 n_req=54 n_rd=208 n_write=2 bw_util=0.002437
n_activity=652 dram_eff=0.6442
bk0: 16a 172328i bk1: 16a 172302i bk2: 64a 172188i bk3: 64a 172091i bk4: 12a 172263i bk5: 12a 172245i bk6: 0a 172375i bk7: 4a 172350i bk8: 0a 172377i bk9: 4a 172351i bk10: 8a 172323i bk11: 0a 172371i bk12: 0a 172374i bk13: 0a 172374i bk14: 4a 172354i bk15: 4a 172352i 
dram_util_bins: 0 0 0 0 0 0 0 0 0 0
dram_eff_bins: 0 0 0 0 0 0 0 0 0 0
mrqq: max=12 avg=0.0122814
Memory Partition 6: 
Cache L2_bank_012:
MSHR contents

Cache L2_bank_013:
MSHR contents

In Dram Latency Queue (total = 0): 
DRAM[6]: 16 bks, busW=4 BL=8 CL=12, tRRD=2 tCCD=6, tRCD=12 tRAS=28 tRP=12 tRC=40
n_cmd=172374 n_nop=172167 n_act=8 n_pre=1 n_req=51 n_rd=196 n_write=2 bw_util=0.002297
n_activity=522 dram_eff=0.7586
bk0: 16a 172317i bk1: 16a 172293i bk2: 64a 172230i bk3: 68a 172073i bk4: 16a 172206i bk5: 12a 172219i bk6: 0a 172371i bk7: 0a 172372i bk8: 4a 172353i bk9: 0a 172372i bk10: 0a 172372i bk11: 0a 172373i bk12: 0a 172375i bk13: 0a 172375i bk14: 0a 172376i bk15: 0a 172376i 
dram_util_bins: 0 0 0 0 0 0 0 0 0 0
dram_eff_bins: 0 0 0 0 0 0 0 0 0 0
mrqq: max=12 avg=0.012061
Memory Partition 7: 
Cache L2_bank_014:
MSHR contents

Cache L2_bank_015:
MSHR contents

In Dram Latency Queue (total = 0): 
DRAM[7]: 16 bks, busW=4 BL=8 CL=12, tRRD=2 tCCD=6, tRCD=12 tRAS=28 tRP=12 tRC=40
n_cmd=172374 n_nop=172154 n_act=8 n_pre=0 n_req=56 n_rd=208 n_write=4 bw_util=0.00246
n_activity=531 dram_eff=0.7985
bk0: 20a 172324i bk1: 20a 172291i bk2: 64a 172164i bk3: 64a 172065i bk4: 12a 172257i bk5: 20a 172197i bk6: 4a 172339i bk7: 0a 172373i bk8: 0a 172373i bk9: 0a 172373i bk10: 4a 172348i bk11: 0a 172373i bk12: 0a 172374i bk13: 0a 172374i bk14: 0a 172374i bk15: 0a 172375i 
dram_util_bins: 0 0 0 0 0 0 0 0 0 0
dram_eff_bins: 0 0 0 0 0 0 0 0 0 0
mrqq: max=11 avg=0.0105816
Memory Partition 8: 
Cache L2_bank_016:
MSHR contents

Cache L2_bank_017:
MSHR contents

In Dram Latency Queue (total = 0): 
DRAM[8]: 16 bks, busW=4 BL=8 CL=12, tRRD=2 tCCD=6, tRCD=12 tRAS=28 tRP=12 tRC=40
n_cmd=172374 n_nop=172166 n_act=7 n_pre=0 n_req=51 n_rd=200 n_write=1 bw_util=0.002332
n_activity=485 dram_eff=0.8289
bk0: 20a 172324i bk1: 20a 172287i bk2: 64a 172215i bk3: 64a 172098i bk4: 16a 172210i bk5: 12a 172213i bk6: 0a 172371i bk7: 0a 172372i bk8: 0a 172375i bk9: 0a 172375i bk10: 0a 172375i bk11: 4a 172355i bk12: 0a 172373i bk13: 0a 172373i bk14: 0a 172374i bk15: 0a 172374i 
dram_util_bins: 0 0 0 0 0 0 0 0 0 0
dram_eff_bins: 0 0 0 0 0 0 0 0 0 0
mrqq: max=11 avg=0.0112488
Memory Partition 9: 
Cache L2_bank_018:
MSHR contents

Cache L2_bank_019:
MSHR contents

In Dram Latency Queue (total = 0): 
DRAM[9]: 16 bks, busW=4 BL=8 CL=12, tRRD=2 tCCD=6, tRCD=12 tRAS=28 tRP=12 tRC=40
n_cmd=172374 n_nop=172160 n_act=8 n_pre=0 n_req=53 n_rd=204 n_write=2 bw_util=0.00239
n_activity=525 dram_eff=0.7848
bk0: 20a 172324i bk1: 20a 172284i bk2: 64a 172226i bk3: 64a 172109i bk4: 16a 172224i bk5: 12a 172221i bk6: 0a 172372i bk7: 0a 172373i bk8: 4a 172354i bk9: 0a 172373i bk10: 4a 172348i bk11: 0a 172373i bk12: 0a 172374i bk13: 0a 172375i bk14: 0a 172375i bk15: 0a 172375i 
dram_util_bins: 0 0 0 0 0 0 0 0 0 0
dram_eff_bins: 0 0 0 0 0 0 0 0 0 0
mrqq: max=13 avg=0.0129138
Memory Partition 10: 
Cache L2_bank_020:
MSHR contents

Cache L2_bank_021:
MSHR contents

In Dram Latency Queue (total = 0): 
DRAM[10]: 16 bks, busW=4 BL=8 CL=12, tRRD=2 tCCD=6, tRCD=12 tRAS=28 tRP=12 tRC=40
n_cmd=172374 n_nop=172163 n_act=10 n_pre=0 n_req=51 n_rd=200 n_write=1 bw_util=0.002332
n_activity=560 dram_eff=0.7179
bk0: 20a 172323i bk1: 20a 172286i bk2: 64a 172198i bk3: 64a 172084i bk4: 8a 172272i bk5: 8a 172260i bk6: 0a 172372i bk7: 4a 172354i bk8: 4a 172353i bk9: 4a 172353i bk10: 0a 172372i bk11: 0a 172373i bk12: 0a 172373i bk13: 4a 172349i bk14: 0a 172374i bk15: 0a 172375i 
dram_util_bins: 0 0 0 0 0 0 0 0 0 0
dram_eff_bins: 0 0 0 0 0 0 0 0 0 0
mrqq: max=12 avg=0.0108137

========= L2 cache stats =========
L2_cache_bank[0]: Access = 121, Miss = 25, Miss_rate = 0.207, Pending_hits = 96, Reservation_fails = 0
L2_cache_bank[1]: Access = 92, Miss = 23, Miss_rate = 0.250, Pending_hits = 69, Reservation_fails = 0
L2_cache_bank[2]: Access = 94, Miss = 25, Miss_rate = 0.266, Pending_hits = 69, Reservation_fails = 0
L2_cache_bank[3]: Access = 92, Miss = 23, Miss_rate = 0.250, Pending_hits = 69, Reservation_fails = 0
L2_cache_bank[4]: Access = 100, Miss = 24, Miss_rate = 0.240, Pending_hits = 69, Reservation_fails = 0
L2_cache_bank[5]: Access = 92, Miss = 23, Miss_rate = 0.250, Pending_hits = 69, Reservation_fails = 0
L2_cache_bank[6]: Access = 94, Miss = 25, Miss_rate = 0.266, Pending_hits = 69, Reservation_fails = 0
L2_cache_bank[7]: Access = 93, Miss = 24, Miss_rate = 0.258, Pending_hits = 69, Reservation_fails = 0
L2_cache_bank[8]: Access = 120, Miss = 24, Miss_rate = 0.200, Pending_hits = 96, Reservation_fails = 0
L2_cache_bank[9]: Access = 120, Miss = 24, Miss_rate = 0.200, Pending_hits = 96, Reservation_fails = 0
L2_cache_bank[10]: Access = 119, Miss = 26, Miss_rate = 0.218, Pending_hits = 69, Reservation_fails = 0
L2_cache_bank[11]: Access = 122, Miss = 26, Miss_rate = 0.213, Pending_hits = 96, Reservation_fails = 0
L2_cache_bank[12]: Access = 94, Miss = 25, Miss_rate = 0.266, Pending_hits = 69, Reservation_fails = 0
L2_cache_bank[13]: Access = 93, Miss = 24, Miss_rate = 0.258, Pending_hits = 69, Reservation_fails = 0
L2_cache_bank[14]: Access = 99, Miss = 26, Miss_rate = 0.263, Pending_hits = 72, Reservation_fails = 0
L2_cache_bank[15]: Access = 98, Miss = 26, Miss_rate = 0.265, Pending_hits = 72, Reservation_fails = 0
L2_cache_bank[16]: Access = 97, Miss = 25, Miss_rate = 0.258, Pending_hits = 72, Reservation_fails = 0
L2_cache_bank[17]: Access = 97, Miss = 25, Miss_rate = 0.258, Pending_hits = 72, Reservation_fails = 0
L2_cache_bank[18]: Access = 99, Miss = 27, Miss_rate = 0.273, Pending_hits = 72, Reservation_fails = 0
L2_cache_bank[19]: Access = 96, Miss = 24, Miss_rate = 0.250, Pending_hits = 72, Reservation_fails = 0
L2_cache_bank[20]: Access = 93, Miss = 24, Miss_rate = 0.258, Pending_hits = 69, Reservation_fails = 0
L2_cache_bank[21]: Access = 95, Miss = 26, Miss_rate = 0.274, Pending_hits = 69, Reservation_fails = 0
L2_total_cache_accesses = 2220
L2_total_cache_misses = 544
L2_total_cache_miss_rate = 0.2450
L2_total_cache_pending_hits = 1644
L2_total_cache_reservation_fails = 0
L2_total_cache_breakdown:
	L2_cache_stats_breakdown[GLOBAL_ACC_R][HIT] = 31
	L2_cache_stats_breakdown[GLOBAL_ACC_R][HIT_RESERVED] = 1536
	L2_cache_stats_breakdown[GLOBAL_ACC_R][MISS] = 523
	L2_cache_stats_breakdown[GLOBAL_ACC_R][RESERVATION_FAIL] = 0
	L2_cache_stats_breakdown[LOCAL_ACC_R][HIT] = 0
	L2_cache_stats_breakdown[LOCAL_ACC_R][HIT_RESERVED] = 0
	L2_cache_stats_breakdown[LOCAL_ACC_R][MISS] = 0
	L2_cache_stats_breakdown[LOCAL_ACC_R][RESERVATION_FAIL] = 0
	L2_cache_stats_breakdown[CONST_ACC_R][HIT] = 0
	L2_cache_stats_breakdown[CONST_ACC_R][HIT_RESERVED] = 27
	L2_cache_stats_breakdown[CONST_ACC_R][MISS] = 1
	L2_cache_stats_breakdown[CONST_ACC_R][RESERVATION_FAIL] = 0
	L2_cache_stats_breakdown[TEXTURE_ACC_R][HIT] = 0
	L2_cache_stats_breakdown[TEXTURE_ACC_R][HIT_RESERVED] = 0
	L2_cache_stats_breakdown[TEXTURE_ACC_R][MISS] = 0
	L2_cache_stats_breakdown[TEXTURE_ACC_R][RESERVATION_FAIL] = 0
	L2_cache_stats_breakdown[GLOBAL_ACC_W][HIT] = 1
	L2_cache_stats_breakdown[GLOBAL_ACC_W][HIT_RESERVED] = 0
	L2_cache_stats_breakdown[GLOBAL_ACC_W][MISS] = 16
	L2_cache_stats_breakdown[GLOBAL_ACC_W][RESERVATION_FAIL] = 0
	L2_cache_stats_breakdown[LOCAL_ACC_W][HIT] = 0
	L2_cache_stats_breakdown[LOCAL_ACC_W][HIT_RESERVED] = 0
	L2_cache_stats_breakdown[LOCAL_ACC_W][MISS] = 0
	L2_cache_stats_breakdown[LOCAL_ACC_W][RESERVATION_FAIL] = 0
	L2_cache_stats_breakdown[L1_WRBK_ACC][HIT] = 0
	L2_cache_stats_breakdown[L1_WRBK_ACC][HIT_RESERVED] = 0
	L2_cache_stats_breakdown[L1_WRBK_ACC][MISS] = 0
	L2_cache_stats_breakdown[L1_WRBK_ACC][RESERVATION_FAIL] = 0
	L2_cache_stats_breakdown[L2_WRBK_ACC][HIT] = 0
	L2_cache_stats_breakdown[L2_WRBK_ACC][HIT_RESERVED] = 0
	L2_cache_stats_breakdown[L2_WRBK_ACC][MISS] = 0
	L2_cache_stats_breakdown[L2_WRBK_ACC][RESERVATION_FAIL] = 0
	L2_cache_stats_breakdown[INST_ACC_R][HIT] = 0
	L2_cache_stats_breakdown[INST_ACC_R][HIT_RESERVED] = 81
	L2_cache_stats_breakdown[INST_ACC_R][MISS] = 4
	L2_cache_stats_breakdown[INST_ACC_R][RESERVATION_FAIL] = 0
	L2_cache_stats_breakdown[L1_WR_ALLOC_R][HIT] = 0
	L2_cache_stats_breakdown[L1_WR_ALLOC_R][HIT_RESERVED] = 0
	L2_cache_stats_breakdown[L1_WR_ALLOC_R][MISS] = 0
	L2_cache_stats_breakdown[L1_WR_ALLOC_R][RESERVATION_FAIL] = 0
	L2_cache_stats_breakdown[L2_WR_ALLOC_R][HIT] = 0
	L2_cache_stats_breakdown[L2_WR_ALLOC_R][HIT_RESERVED] = 0
	L2_cache_stats_breakdown[L2_WR_ALLOC_R][MISS] = 0
	L2_cache_stats_breakdown[L2_WR_ALLOC_R][RESERVATION_FAIL] = 0
	L2_cache_stats_breakdown[GLOBAL_ACC_R][TOTAL_ACCESS] = 2090
	L2_cache_stats_breakdown[CONST_ACC_R][TOTAL_ACCESS] = 28
	L2_cache_stats_breakdown[GLOBAL_ACC_W][TOTAL_ACCESS] = 17
	L2_cache_stats_breakdown[INST_ACC_R][TOTAL_ACCESS] = 85
L2_cache_data_port_util = 0.000
L2_cache_fill_port_util = 0.001

icnt_total_pkts_mem_to_simt=4706
icnt_total_pkts_simt_to_mem=2237
LD_mem_lat_dist  0 0 0 0 0 0 0 0 0 0 0 0 0 0 0 0 0 0 0 0 0 0 0 0 0 0 0
ST_mem_lat_dist  0 0 0 0 0 0 0 0 0 0 0 0 0 0 0 0 0 0 0 0 0 0 0 0 0 0 0
----------------------------Interconnect-DETAILS--------------------------------
Class 0:
Packet latency average = 30.5939
	minimum = 6
	maximum = 96
Network latency average = 20.1723
	minimum = 6
	maximum = 60
Slowest packet = 27
Flit latency average = 17.7367
	minimum = 6
	maximum = 60
Slowest flit = 27
Fragmentation average = 0
	minimum = 0
	maximum = 0
Injected packet rate average = 0.000478286
	minimum = 0.000366255 (at node 0)
	maximum = 0.000689421 (at node 1)
Accepted packet rate average = 0.000478286
	minimum = 0.000366255 (at node 0)
	maximum = 0.000689421 (at node 1)
Injected flit rate average = 0.000747914
	minimum = 0.000366255 (at node 0)
	maximum = 0.00175587 (at node 39)
Accepted flit rate average= 0.000747914
	minimum = 0.000495521 (at node 29)
	maximum = 0.0013573 (at node 1)
Injected packet length average = 1.56374
Accepted packet length average = 1.56374
Total in-flight flits = 0 (0 measured)
====== Overall Traffic Statistics ======
====== Traffic class 0 ======
Packet latency average = 30.5939 (1 samples)
	minimum = 6 (1 samples)
	maximum = 96 (1 samples)
Network latency average = 20.1723 (1 samples)
	minimum = 6 (1 samples)
	maximum = 60 (1 samples)
Flit latency average = 17.7367 (1 samples)
	minimum = 6 (1 samples)
	maximum = 60 (1 samples)
Fragmentation average = 0 (1 samples)
	minimum = 0 (1 samples)
	maximum = 0 (1 samples)
Injected packet rate average = 0.000478286 (1 samples)
	minimum = 0.000366255 (1 samples)
	maximum = 0.000689421 (1 samples)
Accepted packet rate average = 0.000478286 (1 samples)
	minimum = 0.000366255 (1 samples)
	maximum = 0.000689421 (1 samples)
Injected flit rate average = 0.000747914 (1 samples)
	minimum = 0.000366255 (1 samples)
	maximum = 0.00175587 (1 samples)
Accepted flit rate average = 0.000747914 (1 samples)
	minimum = 0.000495521 (1 samples)
	maximum = 0.0013573 (1 samples)
Injected packet size average = 1.56374 (1 samples)
Accepted packet size average = 1.56374 (1 samples)
Hops average = 1 (1 samples)
----------------------------END-of-Interconnect-DETAILS-------------------------


gpgpu_simulation_time = 0 days, 0 hrs, 2 min, 14 sec (134 sec)
gpgpu_simulation_rate = 9293 (inst/sec)
gpgpu_simulation_rate = 2369 (cycle/sec)

GPGPU-Sim PTX: cudaLaunch for 0x0x401649 (mode=performance simulation) on stream 0
GPGPU-Sim PTX: pushing kernel '_Z7Kernel2PbS_S_S_i' to stream 0, gridDim= (128,1,1) blockDim = (512,1,1) 
GPGPU-Sim uArch: Shader 16 bind to kernel 2 '_Z7Kernel2PbS_S_S_i'
GPGPU-Sim uArch: CTA/core = 4, limited by: threads
GPGPU-Sim uArch: Shader 17 bind to kernel 2 '_Z7Kernel2PbS_S_S_i'
GPGPU-Sim uArch: Shader 18 bind to kernel 2 '_Z7Kernel2PbS_S_S_i'
GPGPU-Sim uArch: Shader 19 bind to kernel 2 '_Z7Kernel2PbS_S_S_i'
GPGPU-Sim uArch: Shader 20 bind to kernel 2 '_Z7Kernel2PbS_S_S_i'
GPGPU-Sim uArch: Shader 21 bind to kernel 2 '_Z7Kernel2PbS_S_S_i'
GPGPU-Sim uArch: Shader 22 bind to kernel 2 '_Z7Kernel2PbS_S_S_i'
GPGPU-Sim uArch: Shader 23 bind to kernel 2 '_Z7Kernel2PbS_S_S_i'
GPGPU-Sim uArch: Shader 24 bind to kernel 2 '_Z7Kernel2PbS_S_S_i'
GPGPU-Sim uArch: Shader 25 bind to kernel 2 '_Z7Kernel2PbS_S_S_i'
GPGPU-Sim uArch: Shader 26 bind to kernel 2 '_Z7Kernel2PbS_S_S_i'
GPGPU-Sim uArch: Shader 27 bind to kernel 2 '_Z7Kernel2PbS_S_S_i'
GPGPU-Sim uArch: Shader 0 bind to kernel 2 '_Z7Kernel2PbS_S_S_i'
GPGPU-Sim uArch: Shader 1 bind to kernel 2 '_Z7Kernel2PbS_S_S_i'
GPGPU-Sim uArch: Shader 2 bind to kernel 2 '_Z7Kernel2PbS_S_S_i'
GPGPU-Sim uArch: Shader 3 bind to kernel 2 '_Z7Kernel2PbS_S_S_i'
GPGPU-Sim uArch: Shader 4 bind to kernel 2 '_Z7Kernel2PbS_S_S_i'
GPGPU-Sim uArch: Shader 5 bind to kernel 2 '_Z7Kernel2PbS_S_S_i'
GPGPU-Sim uArch: Shader 6 bind to kernel 2 '_Z7Kernel2PbS_S_S_i'
GPGPU-Sim uArch: Shader 7 bind to kernel 2 '_Z7Kernel2PbS_S_S_i'
GPGPU-Sim uArch: Shader 8 bind to kernel 2 '_Z7Kernel2PbS_S_S_i'
GPGPU-Sim uArch: Shader 9 bind to kernel 2 '_Z7Kernel2PbS_S_S_i'
GPGPU-Sim uArch: Shader 10 bind to kernel 2 '_Z7Kernel2PbS_S_S_i'
GPGPU-Sim uArch: Shader 11 bind to kernel 2 '_Z7Kernel2PbS_S_S_i'
GPGPU-Sim uArch: Shader 12 bind to kernel 2 '_Z7Kernel2PbS_S_S_i'
GPGPU-Sim uArch: Shader 13 bind to kernel 2 '_Z7Kernel2PbS_S_S_i'
GPGPU-Sim uArch: Shader 14 bind to kernel 2 '_Z7Kernel2PbS_S_S_i'
GPGPU-Sim uArch: Shader 15 bind to kernel 2 '_Z7Kernel2PbS_S_S_i'
Destroy streams for kernel 2: size 0
kernel_name = _Z7Kernel2PbS_S_S_i 
kernel_launch_uid = 2 
gpu_sim_cycle = 2029
gpu_sim_insn = 1114192
gpu_ipc =     549.1335
gpu_tot_sim_cycle = 541697
gpu_tot_sim_insn = 2359568
gpu_tot_ipc =       4.3559
gpu_tot_issued_cta = 256
max_total_param_size = 0
gpu_stall_dramfull = 202
gpu_stall_icnt2sh    = 8266
partiton_reqs_in_parallel = 44436
partiton_reqs_in_parallel_total    = 2042304
partiton_level_parallism =      21.9004
partiton_level_parallism_total  =       3.8522
partiton_reqs_in_parallel_util = 44436
partiton_reqs_in_parallel_util_total    = 2042304
gpu_sim_cycle_parition_util = 2029
gpu_tot_sim_cycle_parition_util    = 92832
partiton_level_parallism_util =      21.9004
partiton_level_parallism_util_total  =      21.9979
partiton_replys_in_parallel = 2136
partiton_replys_in_parallel_total    = 2220
L2_BW  =      99.7825 GB/Sec
L2_BW_total  =       0.7622 GB/Sec
gpu_total_sim_rate=15836

========= Core cache stats =========
L1I_cache:
	L1I_total_cache_accesses = 43152
	L1I_total_cache_misses = 5466
	L1I_total_cache_miss_rate = 0.1267
	L1I_total_cache_pending_hits = 0
	L1I_total_cache_reservation_fails = 15962
L1D_cache:
	L1D_cache_core[0]: Access = 0, Miss = 0, Miss_rate = -nan, Pending_hits = 0, Reservation_fails = 0
	L1D_cache_core[1]: Access = 0, Miss = 0, Miss_rate = -nan, Pending_hits = 0, Reservation_fails = 0
	L1D_cache_core[2]: Access = 0, Miss = 0, Miss_rate = -nan, Pending_hits = 0, Reservation_fails = 0
	L1D_cache_core[3]: Access = 0, Miss = 0, Miss_rate = -nan, Pending_hits = 0, Reservation_fails = 0
	L1D_cache_core[4]: Access = 0, Miss = 0, Miss_rate = -nan, Pending_hits = 0, Reservation_fails = 0
	L1D_cache_core[5]: Access = 0, Miss = 0, Miss_rate = -nan, Pending_hits = 0, Reservation_fails = 0
	L1D_cache_core[6]: Access = 0, Miss = 0, Miss_rate = -nan, Pending_hits = 0, Reservation_fails = 0
	L1D_cache_core[7]: Access = 0, Miss = 0, Miss_rate = -nan, Pending_hits = 0, Reservation_fails = 0
	L1D_cache_core[8]: Access = 0, Miss = 0, Miss_rate = -nan, Pending_hits = 0, Reservation_fails = 0
	L1D_cache_core[9]: Access = 0, Miss = 0, Miss_rate = -nan, Pending_hits = 0, Reservation_fails = 0
	L1D_cache_core[10]: Access = 0, Miss = 0, Miss_rate = -nan, Pending_hits = 0, Reservation_fails = 0
	L1D_cache_core[11]: Access = 0, Miss = 0, Miss_rate = -nan, Pending_hits = 0, Reservation_fails = 0
	L1D_cache_core[12]: Access = 0, Miss = 0, Miss_rate = -nan, Pending_hits = 0, Reservation_fails = 0
	L1D_cache_core[13]: Access = 0, Miss = 0, Miss_rate = -nan, Pending_hits = 0, Reservation_fails = 0
	L1D_cache_core[14]: Access = 0, Miss = 0, Miss_rate = -nan, Pending_hits = 0, Reservation_fails = 0
	L1D_cache_core[15]: Access = 0, Miss = 0, Miss_rate = -nan, Pending_hits = 0, Reservation_fails = 0
	L1D_cache_core[16]: Access = 0, Miss = 0, Miss_rate = -nan, Pending_hits = 0, Reservation_fails = 0
	L1D_cache_core[17]: Access = 0, Miss = 0, Miss_rate = -nan, Pending_hits = 0, Reservation_fails = 0
	L1D_cache_core[18]: Access = 0, Miss = 0, Miss_rate = -nan, Pending_hits = 0, Reservation_fails = 0
	L1D_cache_core[19]: Access = 0, Miss = 0, Miss_rate = -nan, Pending_hits = 0, Reservation_fails = 0
	L1D_cache_core[20]: Access = 0, Miss = 0, Miss_rate = -nan, Pending_hits = 0, Reservation_fails = 0
	L1D_cache_core[21]: Access = 0, Miss = 0, Miss_rate = -nan, Pending_hits = 0, Reservation_fails = 0
	L1D_cache_core[22]: Access = 0, Miss = 0, Miss_rate = -nan, Pending_hits = 0, Reservation_fails = 0
	L1D_cache_core[23]: Access = 0, Miss = 0, Miss_rate = -nan, Pending_hits = 0, Reservation_fails = 0
	L1D_cache_core[24]: Access = 0, Miss = 0, Miss_rate = -nan, Pending_hits = 0, Reservation_fails = 0
	L1D_cache_core[25]: Access = 0, Miss = 0, Miss_rate = -nan, Pending_hits = 0, Reservation_fails = 0
	L1D_cache_core[26]: Access = 0, Miss = 0, Miss_rate = -nan, Pending_hits = 0, Reservation_fails = 0
	L1D_cache_core[27]: Access = 0, Miss = 0, Miss_rate = -nan, Pending_hits = 0, Reservation_fails = 0
	L1D_total_cache_accesses = 0
	L1D_total_cache_misses = 0
	L1D_total_cache_pending_hits = 0
	L1D_total_cache_reservation_fails = 0
	L1D_cache_data_port_util = 0.000
	L1D_cache_fill_port_util = 0.000
L1C_cache:
	L1C_total_cache_accesses = 24576
	L1C_total_cache_misses = 1792
	L1C_total_cache_miss_rate = 0.0729
	L1C_total_cache_pending_hits = 0
	L1C_total_cache_reservation_fails = 4886
L1T_cache:
	L1T_total_cache_accesses = 0
	L1T_total_cache_misses = 0
	L1T_total_cache_pending_hits = 0
	L1T_total_cache_reservation_fails = 0

Total_core_cache_stats:
	Total_core_cache_stats_breakdown[GLOBAL_ACC_R][HIT] = 0
	Total_core_cache_stats_breakdown[GLOBAL_ACC_R][HIT_RESERVED] = 0
	Total_core_cache_stats_breakdown[GLOBAL_ACC_R][MISS] = 0
	Total_core_cache_stats_breakdown[GLOBAL_ACC_R][RESERVATION_FAIL] = 0
	Total_core_cache_stats_breakdown[LOCAL_ACC_R][HIT] = 0
	Total_core_cache_stats_breakdown[LOCAL_ACC_R][HIT_RESERVED] = 0
	Total_core_cache_stats_breakdown[LOCAL_ACC_R][MISS] = 0
	Total_core_cache_stats_breakdown[LOCAL_ACC_R][RESERVATION_FAIL] = 0
	Total_core_cache_stats_breakdown[CONST_ACC_R][HIT] = 22784
	Total_core_cache_stats_breakdown[CONST_ACC_R][HIT_RESERVED] = 0
	Total_core_cache_stats_breakdown[CONST_ACC_R][MISS] = 1792
	Total_core_cache_stats_breakdown[CONST_ACC_R][RESERVATION_FAIL] = 4886
	Total_core_cache_stats_breakdown[TEXTURE_ACC_R][HIT] = 0
	Total_core_cache_stats_breakdown[TEXTURE_ACC_R][HIT_RESERVED] = 0
	Total_core_cache_stats_breakdown[TEXTURE_ACC_R][MISS] = 0
	Total_core_cache_stats_breakdown[TEXTURE_ACC_R][RESERVATION_FAIL] = 0
	Total_core_cache_stats_breakdown[GLOBAL_ACC_W][HIT] = 0
	Total_core_cache_stats_breakdown[GLOBAL_ACC_W][HIT_RESERVED] = 0
	Total_core_cache_stats_breakdown[GLOBAL_ACC_W][MISS] = 0
	Total_core_cache_stats_breakdown[GLOBAL_ACC_W][RESERVATION_FAIL] = 0
	Total_core_cache_stats_breakdown[LOCAL_ACC_W][HIT] = 0
	Total_core_cache_stats_breakdown[LOCAL_ACC_W][HIT_RESERVED] = 0
	Total_core_cache_stats_breakdown[LOCAL_ACC_W][MISS] = 0
	Total_core_cache_stats_breakdown[LOCAL_ACC_W][RESERVATION_FAIL] = 0
	Total_core_cache_stats_breakdown[L1_WRBK_ACC][HIT] = 0
	Total_core_cache_stats_breakdown[L1_WRBK_ACC][HIT_RESERVED] = 0
	Total_core_cache_stats_breakdown[L1_WRBK_ACC][MISS] = 0
	Total_core_cache_stats_breakdown[L1_WRBK_ACC][RESERVATION_FAIL] = 0
	Total_core_cache_stats_breakdown[L2_WRBK_ACC][HIT] = 0
	Total_core_cache_stats_breakdown[L2_WRBK_ACC][HIT_RESERVED] = 0
	Total_core_cache_stats_breakdown[L2_WRBK_ACC][MISS] = 0
	Total_core_cache_stats_breakdown[L2_WRBK_ACC][RESERVATION_FAIL] = 0
	Total_core_cache_stats_breakdown[INST_ACC_R][HIT] = 37686
	Total_core_cache_stats_breakdown[INST_ACC_R][HIT_RESERVED] = 0
	Total_core_cache_stats_breakdown[INST_ACC_R][MISS] = 5466
	Total_core_cache_stats_breakdown[INST_ACC_R][RESERVATION_FAIL] = 15962
	Total_core_cache_stats_breakdown[L1_WR_ALLOC_R][HIT] = 0
	Total_core_cache_stats_breakdown[L1_WR_ALLOC_R][HIT_RESERVED] = 0
	Total_core_cache_stats_breakdown[L1_WR_ALLOC_R][MISS] = 0
	Total_core_cache_stats_breakdown[L1_WR_ALLOC_R][RESERVATION_FAIL] = 0
	Total_core_cache_stats_breakdown[L2_WR_ALLOC_R][HIT] = 0
	Total_core_cache_stats_breakdown[L2_WR_ALLOC_R][HIT_RESERVED] = 0
	Total_core_cache_stats_breakdown[L2_WR_ALLOC_R][MISS] = 0
	Total_core_cache_stats_breakdown[L2_WR_ALLOC_R][RESERVATION_FAIL] = 0
	Total_core_cache_stats_breakdown[CONST_ACC_R][TOTAL_ACCESS] = 24576
	Total_core_cache_stats_breakdown[INST_ACC_R][TOTAL_ACCESS] = 43152
Shader 0 warp_id issue ditsribution:
warp_id:
0, 1, 2, 3, 4, 5, 6, 7, 8, 9, 10, 11, 12, 13, 14, 15, 16, 17, 18, 19, 20, 21, 22, 23, 24, 25, 26, 27, 28, 29, 30, 31, 32, 33, 34, 35, 36, 37, 38, 39, 40, 41, 42, 43, 44, 45, 46, 47, 48, 49, 50, 51, 52, 53, 54, 55, 56, 57, 58, 59, 60, 61, 62, 63, 
distro:
65, 65, 64, 65, 64, 65, 64, 65, 65, 65, 65, 65, 65, 65, 65, 65, 44, 44, 44, 44, 44, 44, 44, 44, 59, 44, 44, 44, 44, 44, 44, 44, 44, 44, 44, 44, 44, 44, 44, 44, 44, 44, 44, 44, 44, 44, 44, 44, 44, 44, 44, 44, 44, 44, 44, 44, 44, 44, 44, 44, 44, 44, 44, 44, 
gpgpu_n_tot_thrd_icount = 2499680
gpgpu_n_tot_w_icount = 78115
gpgpu_n_stall_shd_mem = 5407
gpgpu_n_mem_read_local = 0
gpgpu_n_mem_write_local = 0
gpgpu_n_mem_read_global = 4138
gpgpu_n_mem_write_global = 49
gpgpu_n_mem_texture = 0
gpgpu_n_mem_const = 28
gpgpu_n_load_insn  = 131114
gpgpu_n_store_insn = 49
gpgpu_n_shmem_insn = 0
gpgpu_n_tex_insn = 0
gpgpu_n_const_mem_insn = 0
gpgpu_n_param_mem_insn = 786432
gpgpu_n_shmem_bkconflict = 0
gpgpu_n_cache_bkconflict = 0
gpgpu_n_intrawarp_mshr_merge = 0
gpgpu_n_cmem_portconflict = 4886
gpgpu_stall_shd_mem[c_mem][bk_conf] = 4886
gpgpu_stall_shd_mem[c_mem][mshr_rc] = 0
gpgpu_stall_shd_mem[c_mem][icnt_rc] = 0
gpgpu_stall_shd_mem[c_mem][data_port_stall] = 0
gpgpu_stall_shd_mem[t_mem][mshr_rc] = 0
gpgpu_stall_shd_mem[t_mem][icnt_rc] = 0
gpgpu_stall_shd_mem[t_mem][data_port_stall] = 0
gpgpu_stall_shd_mem[s_mem][bk_conf] = 0
gpgpu_stall_shd_mem[gl_mem][bk_conf] = 0
gpgpu_stall_shd_mem[gl_mem][coal_stall] = 0
gpgpu_stall_shd_mem[gl_mem][data_port_stall] = 0
gpgpu_stall_shd_mem[g_mem_ld][mshr_rc] = 0
gpgpu_stall_shd_mem[g_mem_ld][icnt_rc] = 521
gpgpu_stall_shd_mem[g_mem_ld][wb_icnt_rc] = 0
gpgpu_stall_shd_mem[g_mem_ld][wb_rsrv_fail] = 0
gpgpu_stall_shd_mem[g_mem_st][mshr_rc] = 0
gpgpu_stall_shd_mem[g_mem_st][icnt_rc] = 0
gpgpu_stall_shd_mem[g_mem_st][wb_icnt_rc] = 0
gpgpu_stall_shd_mem[g_mem_st][wb_rsrv_fail] = 0
gpgpu_stall_shd_mem[l_mem_ld][mshr_rc] = 0
gpgpu_stall_shd_mem[l_mem_ld][icnt_rc] = 0
gpgpu_stall_shd_mem[l_mem_ld][wb_icnt_rc] = 0
gpgpu_stall_shd_mem[l_mem_ld][wb_rsrv_fail] = 0
gpgpu_stall_shd_mem[l_mem_st][mshr_rc] = 0
gpgpu_stall_shd_mem[l_mem_st][icnt_rc] = 0
gpgpu_stall_shd_mem[l_mem_ld][wb_icnt_rc] = 0
gpgpu_stall_shd_mem[l_mem_ld][wb_rsrv_fail] = 0
gpu_reg_bank_conflict_stalls = 0
Warp Occupancy Distribution:
Stall:20456	W0_Idle:162399	W0_Scoreboard:652806	W1:291	W2:0	W3:0	W4:0	W5:0	W6:0	W7:0	W8:0	W9:0	W10:0	W11:0	W12:0	W13:0	W14:0	W15:0	W16:0	W17:0	W18:0	W19:0	W20:0	W21:0	W22:0	W23:0	W24:0	W25:0	W26:0	W27:0	W28:0	W29:0	W30:0	W31:0	W32:77824
traffic_breakdown_coretomem[CONST_ACC_R] = 224 {8:28,}
traffic_breakdown_coretomem[GLOBAL_ACC_R] = 33104 {8:4138,}
traffic_breakdown_coretomem[GLOBAL_ACC_W] = 1960 {40:49,}
traffic_breakdown_coretomem[INST_ACC_R] = 1128 {8:141,}
traffic_breakdown_memtocore[CONST_ACC_R] = 2016 {72:28,}
traffic_breakdown_memtocore[GLOBAL_ACC_R] = 165520 {40:4138,}
traffic_breakdown_memtocore[GLOBAL_ACC_W] = 392 {8:49,}
traffic_breakdown_memtocore[INST_ACC_R] = 19176 {136:141,}
maxmrqlatency = 115 
[...]
F:  6963021----T:  6965626 	 St: 803e8000 Sz: 4096 	 Sm: 0 	 T: memcpy_h2d(1.758947)
F:  6965626----T:  6968231 	 St: 803e9000 Sz: 4096 	 Sm: 0 	 T: memcpy_h2d(1.758947)
F:  6968231----T:  6970836 	 St: 803d0000 Sz: 4096 	 Sm: 0 	 T: memcpy_h2d(1.758947)
F:  6970836----T:  6973441 	 St: 803c3000 Sz: 4096 	 Sm: 0 	 T: memcpy_h2d(1.758947)
F:  6973441----T:  6976046 	 St: 803de000 Sz: 4096 	 Sm: 0 	 T: memcpy_h2d(1.758947)
F:  6976046----T:  6978651 	 St: 8036e000 Sz: 4096 	 Sm: 0 	 T: memcpy_h2d(1.758947)
F:  6978651----T:  6981256 	 St: 803d1000 Sz: 4096 	 Sm: 0 	 T: memcpy_h2d(1.758947)
F:  6981256----T:  6983861 	 St: 803ee000 Sz: 4096 	 Sm: 0 	 T: memcpy_h2d(1.758947)
F:  6983861----T:  6986466 	 St: 8039c000 Sz: 4096 	 Sm: 0 	 T: memcpy_h2d(1.758947)
F:  6986466----T:  6989071 	 St: 802b9000 Sz: 4096 	 Sm: 0 	 T: memcpy_h2d(1.758947)
F:  6989071----T:  6991676 	 St: 802b8000 Sz: 4096 	 Sm: 0 	 T: memcpy_h2d(1.758947)
F:  6991676----T:  6994281 	 St: 802ba000 Sz: 4096 	 Sm: 0 	 T: memcpy_h2d(1.758947)
F:  6994281----T:  6996886 	 St: 802bb000 Sz: 4096 	 Sm: 0 	 T: memcpy_h2d(1.758947)
F:  6996886----T:  6999491 	 St: 80270000 Sz: 4096 	 Sm: 0 	 T: memcpy_h2d(1.758947)
F:  6999491----T:  7002096 	 St: 802b7000 Sz: 4096 	 Sm: 0 	 T: memcpy_h2d(1.758947)
F:  7002096----T:  7004701 	 St: 802b6000 Sz: 4096 	 Sm: 0 	 T: memcpy_h2d(1.758947)
F:  7004701----T:  7007306 	 St: 802d7000 Sz: 4096 	 Sm: 0 	 T: memcpy_h2d(1.758947)
F:  7007306----T:  7009911 	 St: 802d8000 Sz: 4096 	 Sm: 0 	 T: memcpy_h2d(1.758947)
F:  7009911----T:  7012516 	 St: 802bc000 Sz: 4096 	 Sm: 0 	 T: memcpy_h2d(1.758947)
F:  7012516----T:  7015121 	 St: 802bd000 Sz: 4096 	 Sm: 0 	 T: memcpy_h2d(1.758947)
F:  7015121----T:  7017726 	 St: 80273000 Sz: 4096 	 Sm: 0 	 T: memcpy_h2d(1.758947)
F:  7017726----T:  7020331 	 St: 80322000 Sz: 4096 	 Sm: 0 	 T: memcpy_h2d(1.758947)
F:  7020331----T:  7022936 	 St: 80323000 Sz: 4096 	 Sm: 0 	 T: memcpy_h2d(1.758947)
F:  7022936----T:  7025541 	 St: 80324000 Sz: 4096 	 Sm: 0 	 T: memcpy_h2d(1.758947)
F:  7025541----T:  7028146 	 St: 80321000 Sz: 4096 	 Sm: 0 	 T: memcpy_h2d(1.758947)
F:  7028146----T:  7030751 	 St: 80274000 Sz: 4096 	 Sm: 0 	 T: memcpy_h2d(1.758947)
F:  7030751----T:  7033356 	 St: 80278000 Sz: 4096 	 Sm: 0 	 T: memcpy_h2d(1.758947)
F:  7033356----T:  7035961 	 St: 80276000 Sz: 4096 	 Sm: 0 	 T: memcpy_h2d(1.758947)
F:  7035961----T:  7038566 	 St: 80279000 Sz: 4096 	 Sm: 0 	 T: memcpy_h2d(1.758947)
F:  7038566----T:  7041171 	 St: 8027f000 Sz: 4096 	 Sm: 0 	 T: memcpy_h2d(1.758947)
F:  7041171----T:  7043776 	 St: 80418000 Sz: 4096 	 Sm: 0 	 T: memcpy_h2d(1.758947)
F:  7043776----T:  7046381 	 St: 8041e000 Sz: 4096 	 Sm: 0 	 T: memcpy_h2d(1.758947)
F:  7046381----T:  7048986 	 St: 8027c000 Sz: 4096 	 Sm: 0 	 T: memcpy_h2d(1.758947)
F:  7048986----T:  7051591 	 St: 80405000 Sz: 4096 	 Sm: 0 	 T: memcpy_h2d(1.758947)
F:  7051591----T:  7054196 	 St: 8042d000 Sz: 4096 	 Sm: 0 	 T: memcpy_h2d(1.758947)
F:  7054196----T:  7056801 	 St: 80326000 Sz: 4096 	 Sm: 0 	 T: memcpy_h2d(1.758947)
F:  7056801----T:  7059406 	 St: 80325000 Sz: 4096 	 Sm: 0 	 T: memcpy_h2d(1.758947)
F:  7059406----T:  7062011 	 St: 80427000 Sz: 4096 	 Sm: 0 	 T: memcpy_h2d(1.758947)
F:  7062011----T:  7064616 	 St: 80423000 Sz: 4096 	 Sm: 0 	 T: memcpy_h2d(1.758947)
F:  7064616----T:  7067221 	 St: 80327000 Sz: 4096 	 Sm: 0 	 T: memcpy_h2d(1.758947)
F:  7067221----T:  7069826 	 St: 80424000 Sz: 4096 	 Sm: 0 	 T: memcpy_h2d(1.758947)
F:  7069826----T:  7072431 	 St: 80331000 Sz: 4096 	 Sm: 0 	 T: memcpy_h2d(1.758947)
F:  7072431----T:  7075036 	 St: 80332000 Sz: 4096 	 Sm: 0 	 T: memcpy_h2d(1.758947)
F:  7075036----T:  7077641 	 St: 8034f000 Sz: 4096 	 Sm: 0 	 T: memcpy_h2d(1.758947)
F:  7077641----T:  7080246 	 St: 80350000 Sz: 4096 	 Sm: 0 	 T: memcpy_h2d(1.758947)
F:  7080246----T:  7082851 	 St: 80355000 Sz: 4096 	 Sm: 0 	 T: memcpy_h2d(1.758947)
F:  7082851----T:  7085456 	 St: 80356000 Sz: 4096 	 Sm: 0 	 T: memcpy_h2d(1.758947)
F:  7085456----T:  7088061 	 St: 8033d000 Sz: 4096 	 Sm: 0 	 T: memcpy_h2d(1.758947)
F:  7088061----T:  7090666 	 St: 8033e000 Sz: 4096 	 Sm: 0 	 T: memcpy_h2d(1.758947)
F:  7090666----T:  7093271 	 St: 8031f000 Sz: 4096 	 Sm: 0 	 T: memcpy_h2d(1.758947)
F:  7093271----T:  7095876 	 St: 80320000 Sz: 4096 	 Sm: 0 	 T: memcpy_h2d(1.758947)
F:  7095876----T:  7098481 	 St: 80343000 Sz: 4096 	 Sm: 0 	 T: memcpy_h2d(1.758947)
F:  7098481----T:  7101086 	 St: 80344000 Sz: 4096 	 Sm: 0 	 T: memcpy_h2d(1.758947)
F:  7101086----T:  7103691 	 St: 80389000 Sz: 4096 	 Sm: 0 	 T: memcpy_h2d(1.758947)
F:  7103691----T:  7106296 	 St: 8038a000 Sz: 4096 	 Sm: 0 	 T: memcpy_h2d(1.758947)
F:  7106296----T:  7108901 	 St: 80368000 Sz: 4096 	 Sm: 0 	 T: memcpy_h2d(1.758947)
F:  7108901----T:  7111506 	 St: 80369000 Sz: 4096 	 Sm: 0 	 T: memcpy_h2d(1.758947)
F:  7111506----T:  7114111 	 St: 803f0000 Sz: 4096 	 Sm: 0 	 T: memcpy_h2d(1.758947)
F:  7114111----T:  7116716 	 St: 803ef000 Sz: 4096 	 Sm: 0 	 T: memcpy_h2d(1.758947)
F:  7116716----T:  7119321 	 St: 80200000 Sz: 4096 	 Sm: 0 	 T: memcpy_h2d(1.758947)
F:  7119321----T:  7121926 	 St: 8022a000 Sz: 4096 	 Sm: 0 	 T: memcpy_h2d(1.758947)
F:  7121926----T:  7124531 	 St: 80223000 Sz: 4096 	 Sm: 0 	 T: memcpy_h2d(1.758947)
F:  7124531----T:  7127136 	 St: 80201000 Sz: 4096 	 Sm: 0 	 T: memcpy_h2d(1.758947)
F:  7127136----T:  7129741 	 St: 80217000 Sz: 4096 	 Sm: 0 	 T: memcpy_h2d(1.758947)
F:  7129741----T:  7132346 	 St: 80230000 Sz: 4096 	 Sm: 0 	 T: memcpy_h2d(1.758947)
F:  7132346----T:  7134951 	 St: 80239000 Sz: 4096 	 Sm: 0 	 T: memcpy_h2d(1.758947)
F:  7134951----T:  7137556 	 St: 80243000 Sz: 4096 	 Sm: 0 	 T: memcpy_h2d(1.758947)
F:  7137556----T:  7140161 	 St: 80263000 Sz: 4096 	 Sm: 0 	 T: memcpy_h2d(1.758947)
F:  7140161----T:  7142766 	 St: 80257000 Sz: 4096 	 Sm: 0 	 T: memcpy_h2d(1.758947)
F:  7142766----T:  7145371 	 St: 80264000 Sz: 4096 	 Sm: 0 	 T: memcpy_h2d(1.758947)
F:  7145371----T:  7147976 	 St: 8025f000 Sz: 4096 	 Sm: 0 	 T: memcpy_h2d(1.758947)
F:  7147976----T:  7150581 	 St: 80400000 Sz: 4096 	 Sm: 0 	 T: memcpy_h2d(1.758947)
F:  7150581----T:  7153186 	 St: 80401000 Sz: 4096 	 Sm: 0 	 T: memcpy_h2d(1.758947)
F:  7153186----T:  7155791 	 St: 80402000 Sz: 4096 	 Sm: 0 	 T: memcpy_h2d(1.758947)
F:  7155791----T:  7158396 	 St: 8040a000 Sz: 4096 	 Sm: 0 	 T: memcpy_h2d(1.758947)
F:  7158396----T:  7161001 	 St: 8040b000 Sz: 4096 	 Sm: 0 	 T: memcpy_h2d(1.758947)
F:  7161001----T:  7163606 	 St: 8040c000 Sz: 4096 	 Sm: 0 	 T: memcpy_h2d(1.758947)
F:  7163606----T:  7166211 	 St: 8040e000 Sz: 4096 	 Sm: 0 	 T: memcpy_h2d(1.758947)
F:  7166211----T:  7168816 	 St: 8040d000 Sz: 4096 	 Sm: 0 	 T: memcpy_h2d(1.758947)
F:  7168816----T:  7171421 	 St: 80419000 Sz: 4096 	 Sm: 0 	 T: memcpy_h2d(1.758947)
F:  7171421----T:  7174026 	 St: 8041a000 Sz: 4096 	 Sm: 0 	 T: memcpy_h2d(1.758947)
F:  7174026----T:  7176631 	 St: 8041b000 Sz: 4096 	 Sm: 0 	 T: memcpy_h2d(1.758947)
F:  7176631----T:  7179236 	 St: 80414000 Sz: 4096 	 Sm: 0 	 T: memcpy_h2d(1.758947)
F:  7179236----T:  7181841 	 St: 80413000 Sz: 4096 	 Sm: 0 	 T: memcpy_h2d(1.758947)
F:  7181841----T:  7184446 	 St: 8041c000 Sz: 4096 	 Sm: 0 	 T: memcpy_h2d(1.758947)
F:  7184446----T:  7187051 	 St: 8041d000 Sz: 4096 	 Sm: 0 	 T: memcpy_h2d(1.758947)
F:  7187051----T:  7189656 	 St: 8042e000 Sz: 4096 	 Sm: 0 	 T: memcpy_h2d(1.758947)
F:  7189656----T:  7192261 	 St: 8042f000 Sz: 4096 	 Sm: 0 	 T: memcpy_h2d(1.758947)
F:  7192261----T:  7194866 	 St: 80425000 Sz: 4096 	 Sm: 0 	 T: memcpy_h2d(1.758947)
F:  7194866----T:  7197471 	 St: 80426000 Sz: 4096 	 Sm: 0 	 T: memcpy_h2d(1.758947)
F:  7425198----T:  7462418 	 	 	 Kl: 16 	 Sm: 0 	 T: kernel_launch(25.131668)
F:  7425803----T:  7428408 	 St: 80285000 Sz: 4096 	 Sm: 0 	 T: memcpy_h2d(1.758947)
F:  7428408----T:  7431013 	 St: 80286000 Sz: 4096 	 Sm: 0 	 T: memcpy_h2d(1.758947)
F:  7431013----T:  7433618 	 St: 80283000 Sz: 4096 	 Sm: 0 	 T: memcpy_h2d(1.758947)
F:  7433618----T:  7436223 	 St: 80280000 Sz: 4096 	 Sm: 0 	 T: memcpy_h2d(1.758947)
F:  7436223----T:  7438828 	 St: 80281000 Sz: 4096 	 Sm: 0 	 T: memcpy_h2d(1.758947)
F:  7438828----T:  7441433 	 St: 80282000 Sz: 4096 	 Sm: 0 	 T: memcpy_h2d(1.758947)
F:  7441433----T:  7444038 	 St: 80284000 Sz: 4096 	 Sm: 0 	 T: memcpy_h2d(1.758947)
F:  7444038----T:  7446643 	 St: 80287000 Sz: 4096 	 Sm: 0 	 T: memcpy_h2d(1.758947)
F:  7446643----T:  7449248 	 St: 80289000 Sz: 4096 	 Sm: 0 	 T: memcpy_h2d(1.758947)
F:  7449248----T:  7451853 	 St: 80288000 Sz: 4096 	 Sm: 0 	 T: memcpy_h2d(1.758947)
F:  7451853----T:  7454458 	 St: 8028b000 Sz: 4096 	 Sm: 0 	 T: memcpy_h2d(1.758947)
F:  7454458----T:  7457063 	 St: 8028a000 Sz: 4096 	 Sm: 0 	 T: memcpy_h2d(1.758947)
F:  7457063----T:  7459668 	 St: 8028d000 Sz: 4096 	 Sm: 0 	 T: memcpy_h2d(1.758947)
F:  7459668----T:  7462273 	 St: 8028c000 Sz: 4096 	 Sm: 0 	 T: memcpy_h2d(1.758947)
F:  7462418----T:  7464953 	 St: 80000000 Sz: 1 	 Sm: 0 	 T: memcpy_d2h(1.711681)
F:  7464954----T:  7467489 	 St: 80000000 Sz: 1 	 Sm: 0 	 T: memcpy_h2d(1.711681)
F:  7689640----T:  7947195 	 	 	 Kl: 17 	 Sm: 0 	 T: kernel_launch(173.906143)
F:  7690258----T:  7692863 	 St: 8021b000 Sz: 4096 	 Sm: 0 	 T: memcpy_h2d(1.758947)
F:  7692863----T:  7695468 	 St: 80209000 Sz: 4096 	 Sm: 0 	 T: memcpy_h2d(1.758947)
F:  7695468----T:  7698073 	 St: 80213000 Sz: 4096 	 Sm: 0 	 T: memcpy_h2d(1.758947)
F:  7698073----T:  7700678 	 St: 80205000 Sz: 4096 	 Sm: 0 	 T: memcpy_h2d(1.758947)
F:  7700678----T:  7703283 	 St: 80207000 Sz: 4096 	 Sm: 0 	 T: memcpy_h2d(1.758947)
F:  7703283----T:  7705888 	 St: 80211000 Sz: 4096 	 Sm: 0 	 T: memcpy_h2d(1.758947)
F:  7705888----T:  7708493 	 St: 8020f000 Sz: 4096 	 Sm: 0 	 T: memcpy_h2d(1.758947)
F:  7708493----T:  7711098 	 St: 80210000 Sz: 4096 	 Sm: 0 	 T: memcpy_h2d(1.758947)
F:  7711098----T:  7713703 	 St: 8020b000 Sz: 4096 	 Sm: 0 	 T: memcpy_h2d(1.758947)
F:  7713703----T:  7716308 	 St: 80220000 Sz: 4096 	 Sm: 0 	 T: memcpy_h2d(1.758947)
F:  7716308----T:  7718913 	 St: 8021e000 Sz: 4096 	 Sm: 0 	 T: memcpy_h2d(1.758947)
F:  7718913----T:  7721518 	 St: 8021f000 Sz: 4096 	 Sm: 0 	 T: memcpy_h2d(1.758947)
F:  7721518----T:  7724123 	 St: 8021d000 Sz: 4096 	 Sm: 0 	 T: memcpy_h2d(1.758947)
F:  7724123----T:  7726728 	 St: 80229000 Sz: 4096 	 Sm: 0 	 T: memcpy_h2d(1.758947)
F:  7726728----T:  7729333 	 St: 80233000 Sz: 4096 	 Sm: 0 	 T: memcpy_h2d(1.758947)
F:  7727150----T:  7729755 	 St: 804b2000 Sz: 4096 	 Sm: 0 	 T: write_back(1.758947)
F:  7729333----T:  7731938 	 St: 8021c000 Sz: 4096 	 Sm: 0 	 T: memcpy_h2d(1.758947)
F:  7729755----T:  7732360 	 St: 804c2000 Sz: 4096 	 Sm: 0 	 T: write_back(1.758947)
F:  7731938----T:  7734543 	 St: 80246000 Sz: 4096 	 Sm: 0 	 T: memcpy_h2d(1.758947)
F:  7732360----T:  7734965 	 St: 804d9000 Sz: 4096 	 Sm: 0 	 T: write_back(1.758947)
F:  7734543----T:  7737148 	 St: 8024c000 Sz: 4096 	 Sm: 0 	 T: memcpy_h2d(1.758947)
F:  7734965----T:  7737570 	 St: 804d3000 Sz: 4096 	 Sm: 0 	 T: write_back(1.758947)
F:  7737148----T:  7739753 	 St: 80251000 Sz: 4096 	 Sm: 0 	 T: memcpy_h2d(1.758947)
F:  7737570----T:  7740175 	 St: 804da000 Sz: 4096 	 Sm: 0 	 T: write_back(1.758947)
F:  7739753----T:  7742358 	 St: 802c2000 Sz: 4096 	 Sm: 0 	 T: memcpy_h2d(1.758947)
F:  7740175----T:  7742780 	 St: 804b0000 Sz: 4096 	 Sm: 0 	 T: write_back(1.758947)
F:  7742358----T:  7744963 	 St: 802cf000 Sz: 4096 	 Sm: 0 	 T: memcpy_h2d(1.758947)
F:  7742780----T:  7745385 	 St: 804ca000 Sz: 4096 	 Sm: 0 	 T: write_back(1.758947)
F:  7744963----T:  7747568 	 St: 802fb000 Sz: 4096 	 Sm: 0 	 T: memcpy_h2d(1.758947)
F:  7745385----T:  7747990 	 St: 804d4000 Sz: 4096 	 Sm: 0 	 T: write_back(1.758947)
F:  7747568----T:  7750173 	 St: 802c8000 Sz: 4096 	 Sm: 0 	 T: memcpy_h2d(1.758947)
F:  7747990----T:  7750595 	 St: 804c5000 Sz: 4096 	 Sm: 0 	 T: write_back(1.758947)
F:  7750173----T:  7752778 	 St: 802d0000 Sz: 4096 	 Sm: 0 	 T: memcpy_h2d(1.758947)
F:  7752778----T:  7755383 	 St: 802ef000 Sz: 4096 	 Sm: 0 	 T: memcpy_h2d(1.758947)
F:  7755383----T:  7757988 	 St: 802d4000 Sz: 4096 	 Sm: 0 	 T: memcpy_h2d(1.758947)
F:  7757988----T:  7760593 	 St: 80334000 Sz: 4096 	 Sm: 0 	 T: memcpy_h2d(1.758947)
F:  7760593----T:  7763198 	 St: 802f0000 Sz: 4096 	 Sm: 0 	 T: memcpy_h2d(1.758947)
F:  7763198----T:  7765803 	 St: 802ce000 Sz: 4096 	 Sm: 0 	 T: memcpy_h2d(1.758947)
F:  7765803----T:  7768408 	 St: 8033a000 Sz: 4096 	 Sm: 0 	 T: memcpy_h2d(1.758947)
F:  7768408----T:  7771013 	 St: 80328000 Sz: 4096 	 Sm: 0 	 T: memcpy_h2d(1.758947)
F:  7771013----T:  7773618 	 St: 8031c000 Sz: 4096 	 Sm: 0 	 T: memcpy_h2d(1.758947)
F:  7773618----T:  7776223 	 St: 8031d000 Sz: 4096 	 Sm: 0 	 T: memcpy_h2d(1.758947)
F:  7776223----T:  7778828 	 St: 80353000 Sz: 4096 	 Sm: 0 	 T: memcpy_h2d(1.758947)
F:  7778828----T:  7781433 	 St: 8033b000 Sz: 4096 	 Sm: 0 	 T: memcpy_h2d(1.758947)
F:  7781433----T:  7784038 	 St: 80385000 Sz: 4096 	 Sm: 0 	 T: memcpy_h2d(1.758947)
F:  7784038----T:  7786643 	 St: 80364000 Sz: 4096 	 Sm: 0 	 T: memcpy_h2d(1.758947)
F:  7786643----T:  7789248 	 St: 8038f000 Sz: 4096 	 Sm: 0 	 T: memcpy_h2d(1.758947)
F:  7789248----T:  7791853 	 St: 803aa000 Sz: 4096 	 Sm: 0 	 T: memcpy_h2d(1.758947)
F:  7791853----T:  7794458 	 St: 80365000 Sz: 4096 	 Sm: 0 	 T: memcpy_h2d(1.758947)
F:  7794458----T:  7797063 	 St: 80374000 Sz: 4096 	 Sm: 0 	 T: memcpy_h2d(1.758947)
F:  7797063----T:  7799668 	 St: 80381000 Sz: 4096 	 Sm: 0 	 T: memcpy_h2d(1.758947)
F:  7799668----T:  7802273 	 St: 803ab000 Sz: 4096 	 Sm: 0 	 T: memcpy_h2d(1.758947)
F:  7802273----T:  7804878 	 St: 80390000 Sz: 4096 	 Sm: 0 	 T: memcpy_h2d(1.758947)
F:  7804878----T:  7807483 	 St: 803e2000 Sz: 4096 	 Sm: 0 	 T: memcpy_h2d(1.758947)
F:  7807483----T:  7810088 	 St: 803e0000 Sz: 4096 	 Sm: 0 	 T: memcpy_h2d(1.758947)
F:  7810088----T:  7812693 	 St: 803d7000 Sz: 4096 	 Sm: 0 	 T: memcpy_h2d(1.758947)
F:  7812693----T:  7815298 	 St: 8037e000 Sz: 4096 	 Sm: 0 	 T: memcpy_h2d(1.758947)
F:  7815298----T:  7817903 	 St: 803b1000 Sz: 4096 	 Sm: 0 	 T: memcpy_h2d(1.758947)
F:  7817903----T:  7820508 	 St: 80301000 Sz: 4096 	 Sm: 0 	 T: memcpy_h2d(1.758947)
F:  7820508----T:  7823113 	 St: 80303000 Sz: 4096 	 Sm: 0 	 T: memcpy_h2d(1.758947)
F:  7823113----T:  7825718 	 St: 802cb000 Sz: 4096 	 Sm: 0 	 T: memcpy_h2d(1.758947)
F:  7825718----T:  7828323 	 St: 802cc000 Sz: 4096 	 Sm: 0 	 T: memcpy_h2d(1.758947)
F:  7828323----T:  7830928 	 St: 802cd000 Sz: 4096 	 Sm: 0 	 T: memcpy_h2d(1.758947)
F:  7830928----T:  7833533 	 St: 802e9000 Sz: 4096 	 Sm: 0 	 T: memcpy_h2d(1.758947)
F:  7833533----T:  7836138 	 St: 802ea000 Sz: 4096 	 Sm: 0 	 T: memcpy_h2d(1.758947)
F:  7836138----T:  7838743 	 St: 802bf000 Sz: 4096 	 Sm: 0 	 T: memcpy_h2d(1.758947)
F:  7838743----T:  7841348 	 St: 802c0000 Sz: 4096 	 Sm: 0 	 T: memcpy_h2d(1.758947)
F:  7841348----T:  7843953 	 St: 802c1000 Sz: 4096 	 Sm: 0 	 T: memcpy_h2d(1.758947)
F:  7843953----T:  7846558 	 St: 802c6000 Sz: 4096 	 Sm: 0 	 T: memcpy_h2d(1.758947)
F:  7846558----T:  7849163 	 St: 802c7000 Sz: 4096 	 Sm: 0 	 T: memcpy_h2d(1.758947)
F:  7849163----T:  7851768 	 St: 802e2000 Sz: 4096 	 Sm: 0 	 T: memcpy_h2d(1.758947)
F:  7851768----T:  7854373 	 St: 802e4000 Sz: 4096 	 Sm: 0 	 T: memcpy_h2d(1.758947)
F:  7854373----T:  7856978 	 St: 802e3000 Sz: 4096 	 Sm: 0 	 T: memcpy_h2d(1.758947)
F:  7856978----T:  7859583 	 St: 802de000 Sz: 4096 	 Sm: 0 	 T: memcpy_h2d(1.758947)
F:  7859583----T:  7862188 	 St: 802df000 Sz: 4096 	 Sm: 0 	 T: memcpy_h2d(1.758947)
F:  7862188----T:  7864793 	 St: 802e1000 Sz: 4096 	 Sm: 0 	 T: memcpy_h2d(1.758947)
F:  7864793----T:  7867398 	 St: 802d1000 Sz: 4096 	 Sm: 0 	 T: memcpy_h2d(1.758947)
F:  7867398----T:  7870003 	 St: 802d2000 Sz: 4096 	 Sm: 0 	 T: memcpy_h2d(1.758947)
F:  7870003----T:  7872608 	 St: 802d3000 Sz: 4096 	 Sm: 0 	 T: memcpy_h2d(1.758947)
F:  7872608----T:  7875213 	 St: 8030f000 Sz: 4096 	 Sm: 0 	 T: memcpy_h2d(1.758947)
F:  7875213----T:  7877818 	 St: 80310000 Sz: 4096 	 Sm: 0 	 T: memcpy_h2d(1.758947)
F:  7877818----T:  7880423 	 St: 80311000 Sz: 4096 	 Sm: 0 	 T: memcpy_h2d(1.758947)
F:  7880423----T:  7883028 	 St: 80312000 Sz: 4096 	 Sm: 0 	 T: memcpy_h2d(1.758947)
F:  7883028----T:  7885633 	 St: 8030a000 Sz: 4096 	 Sm: 0 	 T: memcpy_h2d(1.758947)
F:  7885633----T:  7888238 	 St: 80309000 Sz: 4096 	 Sm: 0 	 T: memcpy_h2d(1.758947)
F:  7888238----T:  7890843 	 St: 8030b000 Sz: 4096 	 Sm: 0 	 T: memcpy_h2d(1.758947)
F:  7890843----T:  7893448 	 St: 8030c000 Sz: 4096 	 Sm: 0 	 T: memcpy_h2d(1.758947)
F:  7893448----T:  7896053 	 St: 8030d000 Sz: 4096 	 Sm: 0 	 T: memcpy_h2d(1.758947)
F:  7896053----T:  7898658 	 St: 8030e000 Sz: 4096 	 Sm: 0 	 T: memcpy_h2d(1.758947)
F:  7898658----T:  7901263 	 St: 80306000 Sz: 4096 	 Sm: 0 	 T: memcpy_h2d(1.758947)
F:  7901263----T:  7903868 	 St: 80307000 Sz: 4096 	 Sm: 0 	 T: memcpy_h2d(1.758947)
F:  7903868----T:  7906473 	 St: 80308000 Sz: 4096 	 Sm: 0 	 T: memcpy_h2d(1.758947)
F:  7906473----T:  7909078 	 St: 8032c000 Sz: 4096 	 Sm: 0 	 T: memcpy_h2d(1.758947)
F:  7909078----T:  7911683 	 St: 8032b000 Sz: 4096 	 Sm: 0 	 T: memcpy_h2d(1.758947)
F:  7911683----T:  7914288 	 St: 8032d000 Sz: 4096 	 Sm: 0 	 T: memcpy_h2d(1.758947)
F:  7914288----T:  7916893 	 St: 80349000 Sz: 4096 	 Sm: 0 	 T: memcpy_h2d(1.758947)
F:  7916893----T:  7919498 	 St: 8034a000 Sz: 4096 	 Sm: 0 	 T: memcpy_h2d(1.758947)
F:  7919498----T:  7922103 	 St: 8034b000 Sz: 4096 	 Sm: 0 	 T: memcpy_h2d(1.758947)
F:  7922103----T:  7924708 	 St: 80304000 Sz: 4096 	 Sm: 0 	 T: memcpy_h2d(1.758947)
F:  7924708----T:  7927313 	 St: 80305000 Sz: 4096 	 Sm: 0 	 T: memcpy_h2d(1.758947)
F:  7927313----T:  7929918 	 St: 80382000 Sz: 4096 	 Sm: 0 	 T: memcpy_h2d(1.758947)
F:  7929918----T:  7932523 	 St: 80383000 Sz: 4096 	 Sm: 0 	 T: memcpy_h2d(1.758947)
F:  7932523----T:  7935128 	 St: 80384000 Sz: 4096 	 Sm: 0 	 T: memcpy_h2d(1.758947)
F:  7935128----T:  7937733 	 St: 80395000 Sz: 4096 	 Sm: 0 	 T: memcpy_h2d(1.758947)
F:  7937733----T:  7940338 	 St: 80396000 Sz: 4096 	 Sm: 0 	 T: memcpy_h2d(1.758947)
F:  7940338----T:  7942943 	 St: 803a5000 Sz: 4096 	 Sm: 0 	 T: memcpy_h2d(1.758947)
F:  7942943----T:  7945548 	 St: 803a4000 Sz: 4096 	 Sm: 0 	 T: memcpy_h2d(1.758947)
F:  8169345----T:  8170443 	 	 	 Kl: 18 	 Sm: 0 	 T: kernel_launch(0.741391)
F:  8170443----T:  8172978 	 St: 80000000 Sz: 1 	 Sm: 0 	 T: memcpy_d2h(1.711681)
F:  8172979----T:  8175514 	 St: 80000000 Sz: 1 	 Sm: 0 	 T: memcpy_h2d(1.711681)
F:  8397665----T:  8401570 	 	 	 Kl: 19 	 Sm: 0 	 T: kernel_launch(2.636732)
F:  8398642----T:  8401247 	 St: 802d9000 Sz: 4096 	 Sm: 0 	 T: memcpy_h2d(1.758947)
F:  8623720----T:  8624689 	 	 	 Kl: 20 	 Sm: 0 	 T: kernel_launch(0.654288)
F:  8624689----T:  8627224 	 St: 80000000 Sz: 1 	 Sm: 0 	 T: memcpy_d2h(1.711681)
F:  8627225----T:  8629830 	 St: 0 Sz: 4096 	 Sm: 0 	 T: device_sync(1.758947)
F:  8627225----T:  8635465 	 St: 0 Sz: 61440 	 Sm: 0 	 T: device_sync(5.563808)
F:  8638070----T:  8640675 	 St: 0 Sz: 4096 	 Sm: 0 	 T: device_sync(1.758947)
F:  8638070----T:  8646310 	 St: 0 Sz: 61440 	 Sm: 0 	 T: device_sync(5.563808)
F:  8648915----T:  8651520 	 St: 0 Sz: 4096 	 Sm: 0 	 T: device_sync(1.758947)
F:  8648915----T:  8664610 	 St: 0 Sz: 126976 	 Sm: 0 	 T: device_sync(10.597569)
F:  8667215----T:  8669820 	 St: 0 Sz: 4096 	 Sm: 0 	 T: device_sync(1.758947)
F:  8667215----T:  8686192 	 St: 0 Sz: 155648 	 Sm: 0 	 T: device_sync(12.813640)
Tot_prefetch_time: 0(cycle), 0.000000(us)
Tot_kernel_exec_time: 4133505(cycle), 2791.022949(us)
Tot_kernel_exec_time_and_fault_time: 102168300(cycle), 68986.023438(us)
Tot_memcpy_h2d_time: 4093719(cycle), 2764.158691(us)
Tot_memcpy_d2h_time: 25350(cycle), 17.116814(us)
Tot_memcpy_time: 4119069(cycle), 2781.275391(us)
Tot_devicesync_time: 61572(cycle), 41.574612(us)
Tot_writeback_time: 231845(cycle), 156.546249(us)
Tot_memcpy_d2h_sync_wb_time: 318767(cycle), 215.237671(us)
GPGPU-Sim: *** exit detected ***
