

        *** GPGPU-Sim Simulator Version 3.2.2  [build gpgpu-sim_git-commit-1c1adf09f9d1bccf70ff97255c2b46b40ff0e800_modified_0] ***


GPGPU-Sim PTX: simulation mode 0 (can change with PTX_SIM_MODE_FUNC environment variable:
               1=functional simulation only, 0=detailed performance simulator)
GPGPU-Sim: Configuration options:

-network_mode                           1 # Interconnection network mode
-inter_config_file   config_fermi_islip.icnt # Interconnection network config file
-gpgpu_ptx_use_cuobjdump                    1 # Use cuobjdump to extract ptx and sass from binaries
-gpgpu_experimental_lib_support                    0 # Try to extract code from cuda libraries [Broken because of unknown cudaGetExportTable]
-gpgpu_ptx_convert_to_ptxplus                    0 # Convert SASS (native ISA) to ptxplus and run ptxplus
-gpgpu_ptx_force_max_capability                   20 # Force maximum compute capability
-gpgpu_ptx_inst_debug_to_file                    0 # Dump executed instructions' debug information to file
-gpgpu_ptx_inst_debug_file       inst_debug.txt # Executed instructions' debug output file
-gpgpu_ptx_inst_debug_thread_uid                    1 # Thread UID for executed instructions' debug output
-gpgpu_simd_model                       1 # 1 = post-dominator
-gpgpu_shader_core_pipeline              2048:32 # shader core pipeline config, i.e., {<nthread>:<warpsize>}
-gpgpu_tex_cache:l1  16:128:24,L:R:m:N:L,F:128:4,128:2 # per-shader L1 texture cache  (READ-ONLY) config  {<nsets>:<bsize>:<assoc>,<rep>:<wr>:<alloc>:<wr_alloc>,<mshr>:<N>:<merge>,<mq>:<rf>}
-gpgpu_const_cache:l1 128:64:2,L:R:f:N:L,A:2:64,4 # per-shader L1 constant memory cache  (READ-ONLY) config  {<nsets>:<bsize>:<assoc>,<rep>:<wr>:<alloc>:<wr_alloc>,<mshr>:<N>:<merge>,<mq>} 
-gpgpu_cache:il1     8:128:4,L:R:f:N:L,A:2:48,4 # shader L1 instruction cache config  {<nsets>:<bsize>:<assoc>,<rep>:<wr>:<alloc>:<wr_alloc>,<mshr>:<N>:<merge>,<mq>} 
-gpgpu_cache:dl1     64:128:6,L:L:m:N:H,A:128:8,8 # per-shader L1 data cache config  {<nsets>:<bsize>:<assoc>,<rep>:<wr>:<alloc>:<wr_alloc>,<mshr>:<N>:<merge>,<mq> | none}
-gpgpu_cache:dl1PrefL1                 none # per-shader L1 data cache config  {<nsets>:<bsize>:<assoc>,<rep>:<wr>:<alloc>:<wr_alloc>,<mshr>:<N>:<merge>,<mq> | none}
-gpgpu_cache:dl1PrefShared                 none # per-shader L1 data cache config  {<nsets>:<bsize>:<assoc>,<rep>:<wr>:<alloc>:<wr_alloc>,<mshr>:<N>:<merge>,<mq> | none}
-gmem_skip_L1D                          1 # global memory access skip L1D cache (implements -Xptxas -dlcm=cg, default=no skip)
-gpgpu_perfect_mem                      0 # enable perfect memory mode (no cache miss)
-n_regfile_gating_group                    4 # group of lanes that should be read/written together)
-gpgpu_clock_gated_reg_file                    0 # enable clock gated reg file for power calculations
-gpgpu_clock_gated_lanes                    0 # enable clock gated lanes for power calculations
-gpgpu_shader_registers                65536 # Number of registers per shader core. Limits number of concurrent CTAs. (default 8192)
-gpgpu_shader_cta                      32 # Maximum number of concurrent CTAs in shader (default 8)
-gpgpu_num_cta_barriers                   16 # Maximum number of named barriers per CTA (default 16)
-gpgpu_n_clusters                      28 # number of processing clusters
-gpgpu_n_cores_per_cluster                    1 # number of simd cores per cluster
-gpgpu_n_cluster_ejection_buffer_size                    8 # number of packets in ejection buffer
-gpgpu_n_ldst_response_buffer_size                    2 # number of response packets in ld/st unit ejection buffer
-gpgpu_shmem_size                   16384 # Size of shared memory per shader core (default 16kB)
-gpgpu_shmem_size                   98304 # Size of shared memory per shader core (default 16kB)
-gpgpu_shmem_size_PrefL1                16384 # Size of shared memory per shader core (default 16kB)
-gpgpu_shmem_size_PrefShared                16384 # Size of shared memory per shader core (default 16kB)
-gpgpu_shmem_num_banks                   32 # Number of banks in the shared memory in each shader core (default 16)
-gpgpu_shmem_limited_broadcast                    0 # Limit shared memory to do one broadcast per cycle (default on)
-gpgpu_shmem_warp_parts                    1 # Number of portions a warp is divided into for shared memory bank conflict check 
-gpgpu_warpdistro_shader                   -1 # Specify which shader core to collect the warp size distribution from
-gpgpu_warp_issue_shader                    0 # Specify which shader core to collect the warp issue distribution from
-gpgpu_local_mem_map                    1 # Mapping from local memory space address to simulated GPU physical address space (default = enabled)
-gpgpu_num_reg_banks                   32 # Number of register banks (default = 8)
-gpgpu_reg_bank_use_warp_id                    0 # Use warp ID in mapping registers to banks (default = off)
-gpgpu_operand_collector_num_units_sp                   20 # number of collector units (default = 4)
-gpgpu_operand_collector_num_units_sfu                    4 # number of collector units (default = 4)
-gpgpu_operand_collector_num_units_mem                    8 # number of collector units (default = 2)
-gpgpu_operand_collector_num_units_gen                    0 # number of collector units (default = 0)
-gpgpu_operand_collector_num_in_ports_sp                    4 # number of collector unit in ports (default = 1)
-gpgpu_operand_collector_num_in_ports_sfu                    1 # number of collector unit in ports (default = 1)
-gpgpu_operand_collector_num_in_ports_mem                    1 # number of collector unit in ports (default = 1)
-gpgpu_operand_collector_num_in_ports_gen                    0 # number of collector unit in ports (default = 0)
-gpgpu_operand_collector_num_out_ports_sp                    4 # number of collector unit in ports (default = 1)
-gpgpu_operand_collector_num_out_ports_sfu                    1 # number of collector unit in ports (default = 1)
-gpgpu_operand_collector_num_out_ports_mem                    1 # number of collector unit in ports (default = 1)
-gpgpu_operand_collector_num_out_ports_gen                    0 # number of collector unit in ports (default = 0)
-gpgpu_coalesce_arch                   13 # Coalescing arch (default = 13, anything else is off for now)
-gpgpu_num_sched_per_core                    2 # Number of warp schedulers per core
-gpgpu_max_insn_issue_per_warp                    2 # Max number of instructions that can be issued per warp in one cycle by scheduler
-gpgpu_simt_core_sim_order                    1 # Select the simulation order of cores in a cluster (0=Fix, 1=Round-Robin)
-gpgpu_pipeline_widths        4,1,1,4,1,1,6 # Pipeline widths ID_OC_SP,ID_OC_SFU,ID_OC_MEM,OC_EX_SP,OC_EX_SFU,OC_EX_MEM,EX_WB
-gpgpu_num_sp_units                     4 # Number of SP units (default=1)
-gpgpu_num_sfu_units                    1 # Number of SF units (default=1)
-gpgpu_num_mem_units                    1 # Number if ldst units (default=1) WARNING: not hooked up to anything
-gpgpu_scheduler                      gto # Scheduler configuration: < lrr | gto | two_level_active > If two_level_active:<num_active_warps>:<inner_prioritization>:<outer_prioritization>For complete list of prioritization values see shader.h enum scheduler_prioritization_typeDefault: gto
-gpgpu_concurrent_kernel_sm                    0 # Support concurrent kernels on a SM (default = disabled)
-tlb_size                            4096 # Number of tlb entries per SM.
-gpgpu_dram_scheduler                    1 # 0 = fifo, 1 = FR-FCFS (defaul)
-gpgpu_dram_partition_queues              8:8:8:8 # i2$:$2d:d2$:$2i
-l2_ideal                               0 # Use a ideal L2 cache that always hit
-gpgpu_cache:dl2     64:128:16,L:B:m:W:L,A:1024:1024,4:0,32 # unified banked L2 data cache config  {<nsets>:<bsize>:<assoc>,<rep>:<wr>:<alloc>:<wr_alloc>,<mshr>:<N>:<merge>,<mq>}
-gpgpu_cache:dl2_texture_only                    0 # L2 cache used for texture only
-gpgpu_n_mem                           11 # number of memory modules (e.g. memory controllers) in gpu
-gpgpu_n_sub_partition_per_mchannel                    2 # number of memory subpartition in each memory module
-gpgpu_n_mem_per_ctrlr                    1 # number of memory chips per memory controller
-gpgpu_memlatency_stat                   14 # track and display latency statistics 0x2 enables MC, 0x4 enables queue logs
-gpgpu_frfcfs_dram_sched_queue_size                   64 # 0 = unlimited (default); # entries per chip
-gpgpu_dram_return_queue_size                  116 # 0 = unlimited (default); # entries per chip
-gpgpu_dram_buswidth                    4 # default = 4 bytes (8 bytes per cycle at DDR)
-gpgpu_dram_burst_length                    8 # Burst length of each DRAM request (default = 4 data bus cycle)
-dram_data_command_freq_ratio                    4 # Frequency ratio between DRAM data bus and command bus (default = 2 times, i.e. DDR)
-gpgpu_dram_timing_opt nbk=16:CCD=2:RRD=6:RCD=12:RAS=28:RP=12:RC=40: CL=12:WL=4:CDLR=5:WR=12:nbkgrp=1:CCDL=0:RTPL=0 # DRAM timing parameters = {nbk:tCCD:tRRD:tRCD:tRAS:tRP:tRC:CL:WL:tCDLR:tWR:nbkgrp:tCCDL:tRTPL}
-rop_latency                          120 # ROP queue latency (default 85)
-dram_latency                         100 # DRAM latency (default 30)
-gpgpu_mem_addr_mapping dramid@8;00000000.00000000.00000000.00000000.0000RRRR.RRRRRRRR.RBBBCCCC.BCCSSSSS # mapping memory address to dram model {dramid@<start bit>;<memory address map>}
-gpgpu_mem_addr_test                    0 # run sweep test to check address mapping for aliased address
-gpgpu_mem_address_mask                    1 # 0 = old addressing mask, 1 = new addressing mask, 2 = new add. mask + flipped bank sel and chip sel bits
-gpuwattch_xml_file  gpuwattch_geforcegtx1080ti.xml # GPUWattch XML file
-power_simulation_enabled                    1 # Turn on power simulator (1=On, 0=Off)
-power_per_cycle_dump                    0 # Dump detailed power output each cycle
-power_trace_enabled                    0 # produce a file for the power trace (1=On, 0=Off)
-power_trace_zlevel                     6 # Compression level of the power trace output log (0=no comp, 9=highest)
-steady_power_levels_enabled                    0 # produce a file for the steady power levels (1=On, 0=Off)
-steady_state_definition                  8:4 # allowed deviation:number of samples
-gpgpu_max_cycle                        0 # terminates gpu simulation early (0 = no limit)
-gpgpu_max_insn                         0 # terminates gpu simulation early (0 = no limit)
-gpgpu_max_cta                          0 # terminates gpu simulation early (0 = no limit)
-gpgpu_runtime_stat                   500 # display runtime statistics such as dram utilization {<freq>:<flag>}
-liveness_message_freq                    1 # Minimum number of seconds between simulation liveness messages (0 = always print)
-gpgpu_flush_l1_cache                    0 # Flush L1 cache at the end of each kernel call
-gpgpu_flush_l2_cache                    0 # Flush L2 cache at the end of each kernel call
-gpgpu_deadlock_detect                    0 # Stop the simulation at deadlock (1=on (default), 0=off)
-gpgpu_ptx_instruction_classification                    0 # if enabled will classify ptx instruction types per kernel (Max 255 kernels now)
-gpgpu_ptx_sim_mode                     0 # Select between Performance (default) or Functional simulation (1)
-gpgpu_clock_domains 1481.0:2962.0:1481.0:2750.0 # Clock Domain Frequencies in MhZ {<Core Clock>:<ICNT Clock>:<L2 Clock>:<DRAM Clock>}
-gpgpu_max_concurrent_kernel                    8 # maximum kernels that can run concurrently on GPU
-gpgpu_cflog_interval                    0 # Interval between each snapshot in control flow logger
-visualizer_enabled                     0 # Turn on visualizer output (1=On, 0=Off)
-visualizer_outputfile                 NULL # Specifies the output log file for visualizer
-visualizer_zlevel                      6 # Compression level of the visualizer output log (0=no comp, 9=highest)
-trace_enabled                          0 # Turn on traces
-trace_components                    none # comma seperated list of traces to enable. Complete list found in trace_streams.tup. Default none
-trace_sampling_core                    0 # The core which is printed using CORE_DPRINTF. Default 0
-trace_sampling_memory_partition                   -1 # The memory partition which is printed using MEMPART_DPRINTF. Default -1 (i.e. all)
-gddr_size                      10.9091MB # Size of GDDR in MB/GB.(GLOBAL_HEAP_START, GLOBAL_HEAP_START + gddr_size) would be used for unmanged memory, (GLOBAL_HEAP_START + gddr_size, GLOBAL_HEAP_START + gddr_size*2) would be used for managed memory. 
-page_table_walk_latency                  100 # Average page table walk latency (in core cycle).
-eviction_policy                        1 # Select page eviction policy
-invalidate_clean                       0 # Should directly invalidate clean pages
-reserve_accessed_page_percent                   10 # Percentage of accessed pages reserved from eviction in hope that they will be accessed in next iteration.
-percentage_of_free_page_buffer                    0 # Percentage of free page buffer to trigger the page eviction.
-page_size                            4KB # GDDR page size, only 4KB/2MB avaliable.
-pcie_bandwidth                  16.0GB/s # PCI-e bandwidth per direction, in GB/s.
-enable_dma                             0 # Enable direct access to CPU memory
-multiply_dma_penalty                    2 # Oversubscription Multiplicative Penalty Factor for Adaptive DMA
-migrate_threshold                      8 # Access counter threshold for migrating the page from cpu to gpu
-sim_prof_enable                        1 # Enable gpgpu-sim profiler
-hardware_prefetch                      1 # Select gpgpu-sim hardware prefetcher
-hwprefetch_oversub                     1 # Select gpgpu-sim hardware prefetcher under over-subscription
-page_fault_latency                 66645 # Average fault latency (in core cycle).
-enable_accurate_simulation                    0 # Enable page fault functional simulation.
-enable_ptx_file_line_stats                    1 # Turn on PTX source line statistic profiling. (1 = On)
-ptx_line_stats_filename gpgpu_inst_stats.txt # Output file for PTX source line statistics.
-gpgpu_kernel_launch_latency               222150 # Kernel launch latency in cycles. Default: 0
-gpgpu_cdp_enabled                      0 # Turn on CDP
-save_embedded_ptx                      0 # saves ptx files embedded in binary as <n>.ptx
-keep                                   0 # keep intermediate files created by GPGPU-Sim when interfacing with external programs
-gpgpu_ptx_save_converted_ptxplus                    0 # Saved converted ptxplus to a file
-ptx_opcode_latency_int         4,13,4,5,145 # Opcode latencies for integers <ADD,MAX,MUL,MAD,DIV>Default 1,1,19,25,145
-ptx_opcode_latency_fp          4,13,4,5,39 # Opcode latencies for single precision floating points <ADD,MAX,MUL,MAD,DIV>Default 1,1,1,1,30
-ptx_opcode_latency_dp         8,19,8,8,330 # Opcode latencies for double precision floating points <ADD,MAX,MUL,MAD,DIV>Default 8,8,8,8,335
-ptx_opcode_initiation_int            1,2,2,2,8 # Opcode initiation intervals for integers <ADD,MAX,MUL,MAD,DIV>Default 1,1,4,4,32
-ptx_opcode_initiation_fp            1,2,1,1,4 # Opcode initiation intervals for single precision floating points <ADD,MAX,MUL,MAD,DIV>Default 1,1,1,1,5
-ptx_opcode_initiation_dp          1,2,1,1,130 # Opcode initiation intervals for double precision floating points <ADD,MAX,MUL,MAD,DIV>Default 8,8,8,8,130
-cdp_latency         7200,8000,100,12000,1600 # CDP API latency <cudaStreamCreateWithFlags, cudaGetParameterBufferV2_init_perWarp, cudaGetParameterBufferV2_perKernel, cudaLaunchDeviceV2_init_perWarp, cudaLaunchDevicV2_perKernel>Default 7200,8000,100,12000,1600
DRAM Timing Options:
nbk                                    16 # number of banks
CCD                                     2 # column to column delay
RRD                                     6 # minimal delay between activation of rows in different banks
RCD                                    12 # row to column delay
RAS                                    28 # time needed to activate row
RP                                     12 # time needed to precharge (deactivate) row
RC                                     40 # row cycle time
CDLR                                    5 # switching from write to read (changes tWTR)
WR                                     12 # last data-in to row precharge
CL                                     12 # CAS latency
WL                                      4 # Write latency
nbkgrp                                  1 # number of bank groups
CCDL                                    0 # column to column delay between accesses to different bank groups
RTPL                                    0 # read to precharge delay between accesses to different bank groups
Total number of memory sub partition = 22
addr_dec_mask[CHIP]  = 0000000000000000 	high:64 low:0
addr_dec_mask[BK]    = 0000000000007080 	high:15 low:7
addr_dec_mask[ROW]   = 000000000fff8000 	high:28 low:15
addr_dec_mask[COL]   = 0000000000000f7f 	high:12 low:0
addr_dec_mask[BURST] = 000000000000001f 	high:5 low:0
sub_partition_id_mask = 0000000000000080
GPGPU-Sim uArch: clock freqs: 1481000000.000000:2962000000.000000:1481000000.000000:2750000000.000000
GPGPU-Sim uArch: clock periods: 0.00000000067521944632:0.00000000033760972316:0.00000000067521944632:0.00000000036363636364
*** Initializing Memory Statistics ***
GPGPU-Sim uArch: interconnect node map (shaderID+MemID to icntID)
GPGPU-Sim uArch: Memory nodes ID start from index: 28
GPGPU-Sim uArch:    0   1   2   3   4   5   6
GPGPU-Sim uArch:    7   8   9  10  11  12  13
GPGPU-Sim uArch:   14  15  16  17  18  19  20
GPGPU-Sim uArch:   21  22  23  24  25  26  27
GPGPU-Sim uArch:   28  29  30  31  32  33  34
GPGPU-Sim uArch:   35  36  37  38  39  40  41
GPGPU-Sim uArch:   42  43  44  45  46  47  48
GPGPU-Sim uArch:   49
GPGPU-Sim uArch: interconnect node reverse map (icntID to shaderID+MemID)
GPGPU-Sim uArch: Memory nodes start from ID: 28
GPGPU-Sim uArch:    0   1   2   3   4   5   6
GPGPU-Sim uArch:    7   8   9  10  11  12  13
GPGPU-Sim uArch:   14  15  16  17  18  19  20
GPGPU-Sim uArch:   21  22  23  24  25  26  27
GPGPU-Sim uArch:   28  29  30  31  32  33  34
GPGPU-Sim uArch:   35  36  37  38  39  40  41
GPGPU-Sim uArch:   42  43  44  45  46  47  48
GPGPU-Sim uArch:   49
503228a84c5acce04febe5a767a6866d  /root/gpgpu-sim_UVMSmart/benchmarks/Managed/hotspot/hotspot
GPGPU-Sim uArch: performance model initialization complete.
GPGPU-Sim PTX: __cudaRegisterFatBinary, fat_cubin_handle = 1, filename=default
self exe links to: /root/gpgpu-sim_UVMSmart/benchmarks/Managed/hotspot/hotspot
Running md5sum using "md5sum /root/gpgpu-sim_UVMSmart/benchmarks/Managed/hotspot/hotspot "
Parsing file _cuobjdump_complete_output_jutVCm
######### cuobjdump parser ########
## Adding new section ELF
Adding arch: sm_20
Adding identifier: default
## Adding new section ELF
Adding arch: sm_20
Adding identifier: default
## Adding new section PTX
Adding ptx filename: _cuobjdump_1.ptx
Adding arch: sm_20
Adding identifier: default
Done parsing!!!
GPGPU-Sim PTX: __cudaRegisterFunction _Z14calculate_tempiPfS_S_iiiiffffff : hostFun 0x0x401ae2, fat_cubin_handle = 1
GPGPU-Sim PTX: allocating shared region for "_Z14calculate_tempiPfS_S_iiiiffffff$__cuda_local_var_16165_39_non_const_temp_on_cuda" from 0x0 to 0x400 (shared memory space)
GPGPU-Sim PTX: allocating shared region for "_Z14calculate_tempiPfS_S_iiiiffffff$__cuda_local_var_16166_39_non_const_power_on_cuda" from 0x400 to 0x800 (shared memory space)
GPGPU-Sim PTX: allocating shared region for "_Z14calculate_tempiPfS_S_iiiiffffff$__cuda_local_var_16167_39_non_const_temp_t" from 0x800 to 0xc00 (shared memory space)
GPGPU-Sim PTX: instruction assembly for function '_Z14calculate_tempiPfS_S_iiiiffffff'...   done.
GPGPU-Sim PTX: finding reconvergence points for '_Z14calculate_tempiPfS_S_iiiiffffff'...
GPGPU-Sim PTX: Finding dominators for '_Z14calculate_tempiPfS_S_iiiiffffff'...
GPGPU-Sim PTX: Finding immediate dominators for '_Z14calculate_tempiPfS_S_iiiiffffff'...
GPGPU-Sim PTX: Finding postdominators for '_Z14calculate_tempiPfS_S_iiiiffffff'...
GPGPU-Sim PTX: Finding immediate postdominators for '_Z14calculate_tempiPfS_S_iiiiffffff'...
GPGPU-Sim PTX: pre-decoding instructions for '_Z14calculate_tempiPfS_S_iiiiffffff'...
GPGPU-Sim PTX: reconvergence points for _Z14calculate_tempiPfS_S_iiiiffffff...
GPGPU-Sim PTX:  1 (potential) branch divergence @  PC=0x118 (_1.ptx:82) @!%p7 bra BB0_2;
GPGPU-Sim PTX:    immediate post dominator      @  PC=0x1b8 (_1.ptx:106) bar.sync 0;
GPGPU-Sim PTX:  2 (potential) branch divergence @  PC=0x120 (_1.ptx:83) bra.uni BB0_1;
GPGPU-Sim PTX:    immediate post dominator      @  PC=0x128 (_1.ptx:86) mad.lo.s32 %r27, %r1, %r10, %r2;
GPGPU-Sim PTX:  3 (potential) branch divergence @  PC=0x1c8 (_1.ptx:108) @%p8 bra BB0_11;
GPGPU-Sim PTX:    immediate post dominator      @  PC=0x5b0 (_1.ptx:247) and.b16 %rs7, %rs8, 255;
GPGPU-Sim PTX:  4 (potential) branch divergence @  PC=0x338 (_1.ptx:157) @!%p15 bra BB0_7;
GPGPU-Sim PTX:    immediate post dominator      @  PC=0x538 (_1.ptx:226) bar.sync 0;
GPGPU-Sim PTX:  5 (potential) branch divergence @  PC=0x340 (_1.ptx:158) bra.uni BB0_5;
GPGPU-Sim PTX:    immediate post dominator      @  PC=0x348 (_1.ptx:161) setp.gt.s32%p16, %r23, %r6;
GPGPU-Sim PTX:  6 (potential) branch divergence @  PC=0x3d0 (_1.ptx:178) @%p28 bra BB0_7;
GPGPU-Sim PTX:    immediate post dominator      @  PC=0x538 (_1.ptx:226) bar.sync 0;
GPGPU-Sim PTX:  7 (potential) branch divergence @  PC=0x548 (_1.ptx:228) @%p31 bra BB0_11;
GPGPU-Sim PTX:    immediate post dominator      @  PC=0x5b0 (_1.ptx:247) and.b16 %rs7, %rs8, 255;
GPGPU-Sim PTX:  8 (potential) branch divergence @  PC=0x558 (_1.ptx:231) @%p32 bra BB0_10;
GPGPU-Sim PTX:    immediate post dominator      @  PC=0x590 (_1.ptx:241) bar.sync 0;
GPGPU-Sim PTX:  9 (potential) branch divergence @  PC=0x5a8 (_1.ptx:244) @%p33 bra BB0_4;
GPGPU-Sim PTX:    immediate post dominator      @  PC=0x5b0 (_1.ptx:247) and.b16 %rs7, %rs8, 255;
GPGPU-Sim PTX: 10 (potential) branch divergence @  PC=0x5c0 (_1.ptx:249) @%p34 bra BB0_13;
GPGPU-Sim PTX:    immediate post dominator      @  PC=0x620 (_1.ptx:264) ret;
GPGPU-Sim PTX: ... end of reconvergence points for _Z14calculate_tempiPfS_S_iiiiffffff
GPGPU-Sim PTX: ... done pre-decoding instructions for '_Z14calculate_tempiPfS_S_iiiiffffff'.
GPGPU-Sim PTX: finished parsing EMBEDDED .ptx file _1.ptx
Adding _cuobjdump_1.ptx with cubin handle 1
GPGPU-Sim PTX: extracting embedded .ptx to temporary file "_ptx_09y4EY"
Running: cat _ptx_09y4EY | sed 's/.version 1.5/.version 1.4/' | sed 's/, texmode_independent//' | sed 's/\(\.extern \.const\[1\] .b8 \w\+\)\[\]/\1\[1\]/' | sed 's/const\[.\]/const\[0\]/g' > _ptx2_vrHeHA
GPGPU-Sim PTX: generating ptxinfo using "$CUDA_INSTALL_PATH/bin/ptxas --gpu-name=sm_20 -v _ptx2_vrHeHA --output-file  /dev/null 2> _ptx_09y4EYinfo"
GPGPU-Sim PTX: Kernel '_Z14calculate_tempiPfS_S_iiiiffffff' : regs=34, lmem=0, smem=3072, cmem=120
GPGPU-Sim PTX: removing ptxinfo using "rm -f _ptx_09y4EY _ptx2_vrHeHA _ptx_09y4EYinfo"
GPGPU-Sim PTX: loading globals with explicit initializers... 
GPGPU-Sim PTX: finished loading globals (0 bytes total).
GPGPU-Sim PTX: loading constants with explicit initializers...  done.
WG size of kernel = 16 X 16
pyramidHeight: 2
gridSize: [1024, 1024]
border:[2, 2]
blockGrid:[86, 86]
targetBlock:[12, 12]
Start computing the transient temperature

GPGPU-Sim PTX: cudaLaunch for 0x0x401ae2 (mode=performance simulation) on stream 0
GPGPU-Sim PTX: pushing kernel '_Z14calculate_tempiPfS_S_iiiiffffff' to stream 0, gridDim= (86,86,1) blockDim = (16,16,1) 
GPGPU-Sim uArch: Shader 1 bind to kernel 1 '_Z14calculate_tempiPfS_S_iiiiffffff'
GPGPU-Sim uArch: CTA/core = 7, limited by: regs
GPGPU-Sim uArch: Shader 2 bind to kernel 1 '_Z14calculate_tempiPfS_S_iiiiffffff'
GPGPU-Sim uArch: Shader 3 bind to kernel 1 '_Z14calculate_tempiPfS_S_iiiiffffff'
GPGPU-Sim uArch: Shader 4 bind to kernel 1 '_Z14calculate_tempiPfS_S_iiiiffffff'
GPGPU-Sim uArch: Shader 5 bind to kernel 1 '_Z14calculate_tempiPfS_S_iiiiffffff'
GPGPU-Sim uArch: Shader 6 bind to kernel 1 '_Z14calculate_tempiPfS_S_iiiiffffff'
GPGPU-Sim uArch: Shader 7 bind to kernel 1 '_Z14calculate_tempiPfS_S_iiiiffffff'
GPGPU-Sim uArch: Shader 8 bind to kernel 1 '_Z14calculate_tempiPfS_S_iiiiffffff'
GPGPU-Sim uArch: Shader 9 bind to kernel 1 '_Z14calculate_tempiPfS_S_iiiiffffff'
GPGPU-Sim uArch: Shader 10 bind to kernel 1 '_Z14calculate_tempiPfS_S_iiiiffffff'
GPGPU-Sim uArch: Shader 11 bind to kernel 1 '_Z14calculate_tempiPfS_S_iiiiffffff'
GPGPU-Sim uArch: Shader 12 bind to kernel 1 '_Z14calculate_tempiPfS_S_iiiiffffff'
GPGPU-Sim uArch: Shader 13 bind to kernel 1 '_Z14calculate_tempiPfS_S_iiiiffffff'
GPGPU-Sim uArch: Shader 14 bind to kernel 1 '_Z14calculate_tempiPfS_S_iiiiffffff'
GPGPU-Sim uArch: Shader 15 bind to kernel 1 '_Z14calculate_tempiPfS_S_iiiiffffff'
GPGPU-Sim uArch: Shader 16 bind to kernel 1 '_Z14calculate_tempiPfS_S_iiiiffffff'
GPGPU-Sim uArch: Shader 17 bind to kernel 1 '_Z14calculate_tempiPfS_S_iiiiffffff'
GPGPU-Sim uArch: Shader 18 bind to kernel 1 '_Z14calculate_tempiPfS_S_iiiiffffff'
GPGPU-Sim uArch: Shader 19 bind to kernel 1 '_Z14calculate_tempiPfS_S_iiiiffffff'
GPGPU-Sim uArch: Shader 20 bind to kernel 1 '_Z14calculate_tempiPfS_S_iiiiffffff'
GPGPU-Sim uArch: Shader 21 bind to kernel 1 '_Z14calculate_tempiPfS_S_iiiiffffff'
GPGPU-Sim uArch: Shader 22 bind to kernel 1 '_Z14calculate_tempiPfS_S_iiiiffffff'
GPGPU-Sim uArch: Shader 23 bind to kernel 1 '_Z14calculate_tempiPfS_S_iiiiffffff'
GPGPU-Sim uArch: Shader 24 bind to kernel 1 '_Z14calculate_tempiPfS_S_iiiiffffff'
GPGPU-Sim uArch: Shader 25 bind to kernel 1 '_Z14calculate_tempiPfS_S_iiiiffffff'
GPGPU-Sim uArch: Shader 26 bind to kernel 1 '_Z14calculate_tempiPfS_S_iiiiffffff'
GPGPU-Sim uArch: Shader 27 bind to kernel 1 '_Z14calculate_tempiPfS_S_iiiiffffff'
GPGPU-Sim uArch: Shader 0 bind to kernel 1 '_Z14calculate_tempiPfS_S_iiiiffffff'
GPGPU-Sim uArch: Shader 1 bind to kernel 1 '_Z14calculate_tempiPfS_S_iiiiffffff'
GPGPU-Sim uArch: Shader 2 bind to kernel 1 '_Z14calculate_tempiPfS_S_iiiiffffff'
GPGPU-Sim uArch: Shader 3 bind to kernel 1 '_Z14calculate_tempiPfS_S_iiiiffffff'
GPGPU-Sim uArch: Shader 4 bind to kernel 1 '_Z14calculate_tempiPfS_S_iiiiffffff'
GPGPU-Sim uArch: Shader 7 bind to kernel 1 '_Z14calculate_tempiPfS_S_iiiiffffff'
GPGPU-Sim uArch: Shader 13 bind to kernel 1 '_Z14calculate_tempiPfS_S_iiiiffffff'
GPGPU-Sim uArch: Shader 15 bind to kernel 1 '_Z14calculate_tempiPfS_S_iiiiffffff'
GPGPU-Sim uArch: Shader 17 bind to kernel 1 '_Z14calculate_tempiPfS_S_iiiiffffff'
GPGPU-Sim uArch: Shader 18 bind to kernel 1 '_Z14calculate_tempiPfS_S_iiiiffffff'
GPGPU-Sim uArch: Shader 21 bind to kernel 1 '_Z14calculate_tempiPfS_S_iiiiffffff'
GPGPU-Sim uArch: Shader 24 bind to kernel 1 '_Z14calculate_tempiPfS_S_iiiiffffff'
GPGPU-Sim uArch: Shader 25 bind to kernel 1 '_Z14calculate_tempiPfS_S_iiiiffffff'
GPGPU-Sim uArch: Shader 27 bind to kernel 1 '_Z14calculate_tempiPfS_S_iiiiffffff'
GPGPU-Sim uArch: Shader 0 bind to kernel 1 '_Z14calculate_tempiPfS_S_iiiiffffff'
GPGPU-Sim uArch: Shader 14 bind to kernel 1 '_Z14calculate_tempiPfS_S_iiiiffffff'
GPGPU-Sim uArch: Shader 15 bind to kernel 1 '_Z14calculate_tempiPfS_S_iiiiffffff'
GPGPU-Sim uArch: Shader 18 bind to kernel 1 '_Z14calculate_tempiPfS_S_iiiiffffff'
GPGPU-Sim uArch: Shader 22 bind to kernel 1 '_Z14calculate_tempiPfS_S_iiiiffffff'
GPGPU-Sim uArch: Shader 23 bind to kernel 1 '_Z14calculate_tempiPfS_S_iiiiffffff'
GPGPU-Sim uArch: Shader 27 bind to kernel 1 '_Z14calculate_tempiPfS_S_iiiiffffff'
GPGPU-Sim uArch: Shader 4 bind to kernel 1 '_Z14calculate_tempiPfS_S_iiiiffffff'
GPGPU-Sim uArch: Shader 8 bind to kernel 1 '_Z14calculate_tempiPfS_S_iiiiffffff'
GPGPU-Sim uArch: Shader 11 bind to kernel 1 '_Z14calculate_tempiPfS_S_iiiiffffff'
GPGPU-Sim uArch: Shader 12 bind to kernel 1 '_Z14calculate_tempiPfS_S_iiiiffffff'
GPGPU-Sim uArch: Shader 13 bind to kernel 1 '_Z14calculate_tempiPfS_S_iiiiffffff'
GPGPU-Sim uArch: Shader 15 bind to kernel 1 '_Z14calculate_tempiPfS_S_iiiiffffff'
GPGPU-Sim uArch: Shader 20 bind to kernel 1 '_Z14calculate_tempiPfS_S_iiiiffffff'
GPGPU-Sim uArch: Shader 24 bind to kernel 1 '_Z14calculate_tempiPfS_S_iiiiffffff'
GPGPU-Sim uArch: Shader 4 bind to kernel 1 '_Z14calculate_tempiPfS_S_iiiiffffff'
GPGPU-Sim uArch: Shader 6 bind to kernel 1 '_Z14calculate_tempiPfS_S_iiiiffffff'
GPGPU-Sim uArch: Shader 12 bind to kernel 1 '_Z14calculate_tempiPfS_S_iiiiffffff'
GPGPU-Sim uArch: Shader 13 bind to kernel 1 '_Z14calculate_tempiPfS_S_iiiiffffff'
GPGPU-Sim uArch: Shader 22 bind to kernel 1 '_Z14calculate_tempiPfS_S_iiiiffffff'
GPGPU-Sim uArch: Shader 24 bind to kernel 1 '_Z14calculate_tempiPfS_S_iiiiffffff'
GPGPU-Sim uArch: Shader 9 bind to kernel 1 '_Z14calculate_tempiPfS_S_iiiiffffff'
GPGPU-Sim uArch: Shader 10 bind to kernel 1 '_Z14calculate_tempiPfS_S_iiiiffffff'
GPGPU-Sim uArch: Shader 11 bind to kernel 1 '_Z14calculate_tempiPfS_S_iiiiffffff'
GPGPU-Sim uArch: Shader 12 bind to kernel 1 '_Z14calculate_tempiPfS_S_iiiiffffff'
GPGPU-Sim uArch: Shader 13 bind to kernel 1 '_Z14calculate_tempiPfS_S_iiiiffffff'
GPGPU-Sim uArch: Shader 15 bind to kernel 1 '_Z14calculate_tempiPfS_S_iiiiffffff'
GPGPU-Sim uArch: Shader 16 bind to kernel 1 '_Z14calculate_tempiPfS_S_iiiiffffff'
GPGPU-Sim uArch: Shader 18 bind to kernel 1 '_Z14calculate_tempiPfS_S_iiiiffffff'
GPGPU-Sim uArch: Shader 19 bind to kernel 1 '_Z14calculate_tempiPfS_S_iiiiffffff'
GPGPU-Sim uArch: Shader 20 bind to kernel 1 '_Z14calculate_tempiPfS_S_iiiiffffff'
GPGPU-Sim uArch: Shader 22 bind to kernel 1 '_Z14calculate_tempiPfS_S_iiiiffffff'
GPGPU-Sim uArch: Shader 24 bind to kernel 1 '_Z14calculate_tempiPfS_S_iiiiffffff'
GPGPU-Sim uArch: Shader 26 bind to kernel 1 '_Z14calculate_tempiPfS_S_iiiiffffff'
GPGPU-Sim uArch: Shader 27 bind to kernel 1 '_Z14calculate_tempiPfS_S_iiiiffffff'
GPGPU-Sim uArch: Shader 0 bind to kernel 1 '_Z14calculate_tempiPfS_S_iiiiffffff'
GPGPU-Sim uArch: Shader 1 bind to kernel 1 '_Z14calculate_tempiPfS_S_iiiiffffff'
GPGPU-Sim uArch: Shader 4 bind to kernel 1 '_Z14calculate_tempiPfS_S_iiiiffffff'
GPGPU-Sim uArch: Shader 6 bind to kernel 1 '_Z14calculate_tempiPfS_S_iiiiffffff'
GPGPU-Sim uArch: Shader 7 bind to kernel 1 '_Z14calculate_tempiPfS_S_iiiiffffff'
GPGPU-Sim uArch: Shader 9 bind to kernel 1 '_Z14calculate_tempiPfS_S_iiiiffffff'
GPGPU-Sim uArch: Shader 14 bind to kernel 1 '_Z14calculate_tempiPfS_S_iiiiffffff'
GPGPU-Sim uArch: Shader 17 bind to kernel 1 '_Z14calculate_tempiPfS_S_iiiiffffff'
GPGPU-Sim uArch: Shader 21 bind to kernel 1 '_Z14calculate_tempiPfS_S_iiiiffffff'
GPGPU-Sim uArch: Shader 23 bind to kernel 1 '_Z14calculate_tempiPfS_S_iiiiffffff'
GPGPU-Sim uArch: Shader 25 bind to kernel 1 '_Z14calculate_tempiPfS_S_iiiiffffff'
GPGPU-Sim uArch: Shader 3 bind to kernel 1 '_Z14calculate_tempiPfS_S_iiiiffffff'
GPGPU-Sim uArch: Shader 5 bind to kernel 1 '_Z14calculate_tempiPfS_S_iiiiffffff'
GPGPU-Sim uArch: Shader 7 bind to kernel 1 '_Z14calculate_tempiPfS_S_iiiiffffff'
GPGPU-Sim uArch: Shader 22 bind to kernel 1 '_Z14calculate_tempiPfS_S_iiiiffffff'
GPGPU-Sim uArch: Shader 27 bind to kernel 1 '_Z14calculate_tempiPfS_S_iiiiffffff'
Destroy streams for kernel 1: size 0
kernel_name = _Z14calculate_tempiPfS_S_iiiiffffff 
kernel_launch_uid = 1 
gpu_sim_cycle = 1918184
gpu_sim_insn = 415466464
gpu_ipc =     216.5936
gpu_tot_sim_cycle = 2140334
gpu_tot_sim_insn = 415466464
gpu_tot_ipc =     194.1129
gpu_tot_issued_cta = 7396
max_total_param_size = 0
gpu_stall_dramfull = 51498
gpu_stall_icnt2sh    = 601699
partiton_reqs_in_parallel = 42148550
partiton_reqs_in_parallel_total    = 0
partiton_level_parallism =      21.9732
partiton_level_parallism_total  =      19.6925
partiton_reqs_in_parallel_util = 42148550
partiton_reqs_in_parallel_util_total    = 0
gpu_sim_cycle_parition_util = 1917500
gpu_tot_sim_cycle_parition_util    = 0
partiton_level_parallism_util =      21.9810
partiton_level_parallism_util_total  =      21.9810
partiton_replys_in_parallel = 456444
partiton_replys_in_parallel_total    = 0
L2_BW  =      22.5545 GB/Sec
L2_BW_total  =      20.2135 GB/Sec
gpu_total_sim_rate=156602

========= Core cache stats =========
L1I_cache:
	L1I_total_cache_accesses = 7740000
	L1I_total_cache_misses = 8688
	L1I_total_cache_miss_rate = 0.0011
	L1I_total_cache_pending_hits = 0
	L1I_total_cache_reservation_fails = 6846
L1D_cache:
	L1D_cache_core[0]: Access = 0, Miss = 0, Miss_rate = -nan, Pending_hits = 0, Reservation_fails = 0
	L1D_cache_core[1]: Access = 0, Miss = 0, Miss_rate = -nan, Pending_hits = 0, Reservation_fails = 0
	L1D_cache_core[2]: Access = 0, Miss = 0, Miss_rate = -nan, Pending_hits = 0, Reservation_fails = 0
	L1D_cache_core[3]: Access = 0, Miss = 0, Miss_rate = -nan, Pending_hits = 0, Reservation_fails = 0
	L1D_cache_core[4]: Access = 0, Miss = 0, Miss_rate = -nan, Pending_hits = 0, Reservation_fails = 0
	L1D_cache_core[5]: Access = 0, Miss = 0, Miss_rate = -nan, Pending_hits = 0, Reservation_fails = 0
	L1D_cache_core[6]: Access = 0, Miss = 0, Miss_rate = -nan, Pending_hits = 0, Reservation_fails = 0
	L1D_cache_core[7]: Access = 0, Miss = 0, Miss_rate = -nan, Pending_hits = 0, Reservation_fails = 0
	L1D_cache_core[8]: Access = 0, Miss = 0, Miss_rate = -nan, Pending_hits = 0, Reservation_fails = 0
	L1D_cache_core[9]: Access = 0, Miss = 0, Miss_rate = -nan, Pending_hits = 0, Reservation_fails = 0
	L1D_cache_core[10]: Access = 0, Miss = 0, Miss_rate = -nan, Pending_hits = 0, Reservation_fails = 0
	L1D_cache_core[11]: Access = 0, Miss = 0, Miss_rate = -nan, Pending_hits = 0, Reservation_fails = 0
	L1D_cache_core[12]: Access = 0, Miss = 0, Miss_rate = -nan, Pending_hits = 0, Reservation_fails = 0
	L1D_cache_core[13]: Access = 0, Miss = 0, Miss_rate = -nan, Pending_hits = 0, Reservation_fails = 0
	L1D_cache_core[14]: Access = 0, Miss = 0, Miss_rate = -nan, Pending_hits = 0, Reservation_fails = 0
	L1D_cache_core[15]: Access = 0, Miss = 0, Miss_rate = -nan, Pending_hits = 0, Reservation_fails = 0
	L1D_cache_core[16]: Access = 0, Miss = 0, Miss_rate = -nan, Pending_hits = 0, Reservation_fails = 0
	L1D_cache_core[17]: Access = 0, Miss = 0, Miss_rate = -nan, Pending_hits = 0, Reservation_fails = 0
	L1D_cache_core[18]: Access = 0, Miss = 0, Miss_rate = -nan, Pending_hits = 0, Reservation_fails = 0
	L1D_cache_core[19]: Access = 0, Miss = 0, Miss_rate = -nan, Pending_hits = 0, Reservation_fails = 0
	L1D_cache_core[20]: Access = 0, Miss = 0, Miss_rate = -nan, Pending_hits = 0, Reservation_fails = 0
	L1D_cache_core[21]: Access = 0, Miss = 0, Miss_rate = -nan, Pending_hits = 0, Reservation_fails = 0
	L1D_cache_core[22]: Access = 0, Miss = 0, Miss_rate = -nan, Pending_hits = 0, Reservation_fails = 0
	L1D_cache_core[23]: Access = 0, Miss = 0, Miss_rate = -nan, Pending_hits = 0, Reservation_fails = 0
	L1D_cache_core[24]: Access = 0, Miss = 0, Miss_rate = -nan, Pending_hits = 0, Reservation_fails = 0
	L1D_cache_core[25]: Access = 0, Miss = 0, Miss_rate = -nan, Pending_hits = 0, Reservation_fails = 0
	L1D_cache_core[26]: Access = 0, Miss = 0, Miss_rate = -nan, Pending_hits = 0, Reservation_fails = 0
	L1D_cache_core[27]: Access = 0, Miss = 0, Miss_rate = -nan, Pending_hits = 0, Reservation_fails = 0
	L1D_total_cache_accesses = 0
	L1D_total_cache_misses = 0
	L1D_total_cache_pending_hits = 0
	L1D_total_cache_reservation_fails = 0
	L1D_cache_data_port_util = 0.000
	L1D_cache_fill_port_util = 0.000
L1C_cache:
	L1C_total_cache_accesses = 769184
	L1C_total_cache_misses = 2195
	L1C_total_cache_miss_rate = 0.0029
	L1C_total_cache_pending_hits = 0
	L1C_total_cache_reservation_fails = 4886
L1T_cache:
	L1T_total_cache_accesses = 0
	L1T_total_cache_misses = 0
	L1T_total_cache_pending_hits = 0
	L1T_total_cache_reservation_fails = 0

Total_core_cache_stats:
	Total_core_cache_stats_breakdown[GLOBAL_ACC_R][HIT] = 0
	Total_core_cache_stats_breakdown[GLOBAL_ACC_R][HIT_RESERVED] = 0
	Total_core_cache_stats_breakdown[GLOBAL_ACC_R][MISS] = 0
	Total_core_cache_stats_breakdown[GLOBAL_ACC_R][RESERVATION_FAIL] = 0
	Total_core_cache_stats_breakdown[LOCAL_ACC_R][HIT] = 0
	Total_core_cache_stats_breakdown[LOCAL_ACC_R][HIT_RESERVED] = 0
	Total_core_cache_stats_breakdown[LOCAL_ACC_R][MISS] = 0
	Total_core_cache_stats_breakdown[LOCAL_ACC_R][RESERVATION_FAIL] = 0
	Total_core_cache_stats_breakdown[CONST_ACC_R][HIT] = 766989
	Total_core_cache_stats_breakdown[CONST_ACC_R][HIT_RESERVED] = 0
	Total_core_cache_stats_breakdown[CONST_ACC_R][MISS] = 2195
	Total_core_cache_stats_breakdown[CONST_ACC_R][RESERVATION_FAIL] = 4886
	Total_core_cache_stats_breakdown[TEXTURE_ACC_R][HIT] = 0
	Total_core_cache_stats_breakdown[TEXTURE_ACC_R][HIT_RESERVED] = 0
	Total_core_cache_stats_breakdown[TEXTURE_ACC_R][MISS] = 0
	Total_core_cache_stats_breakdown[TEXTURE_ACC_R][RESERVATION_FAIL] = 0
	Total_core_cache_stats_breakdown[GLOBAL_ACC_W][HIT] = 0
	Total_core_cache_stats_breakdown[GLOBAL_ACC_W][HIT_RESERVED] = 0
	Total_core_cache_stats_breakdown[GLOBAL_ACC_W][MISS] = 0
	Total_core_cache_stats_breakdown[GLOBAL_ACC_W][RESERVATION_FAIL] = 0
	Total_core_cache_stats_breakdown[LOCAL_ACC_W][HIT] = 0
	Total_core_cache_stats_breakdown[LOCAL_ACC_W][HIT_RESERVED] = 0
	Total_core_cache_stats_breakdown[LOCAL_ACC_W][MISS] = 0
	Total_core_cache_stats_breakdown[LOCAL_ACC_W][RESERVATION_FAIL] = 0
	Total_core_cache_stats_breakdown[L1_WRBK_ACC][HIT] = 0
	Total_core_cache_stats_breakdown[L1_WRBK_ACC][HIT_RESERVED] = 0
	Total_core_cache_stats_breakdown[L1_WRBK_ACC][MISS] = 0
	Total_core_cache_stats_breakdown[L1_WRBK_ACC][RESERVATION_FAIL] = 0
	Total_core_cache_stats_breakdown[L2_WRBK_ACC][HIT] = 0
	Total_core_cache_stats_breakdown[L2_WRBK_ACC][HIT_RESERVED] = 0
	Total_core_cache_stats_breakdown[L2_WRBK_ACC][MISS] = 0
	Total_core_cache_stats_breakdown[L2_WRBK_ACC][RESERVATION_FAIL] = 0
	Total_core_cache_stats_breakdown[INST_ACC_R][HIT] = 7731312
	Total_core_cache_stats_breakdown[INST_ACC_R][HIT_RESERVED] = 0
	Total_core_cache_stats_breakdown[INST_ACC_R][MISS] = 8688
	Total_core_cache_stats_breakdown[INST_ACC_R][RESERVATION_FAIL] = 6846
	Total_core_cache_stats_breakdown[L1_WR_ALLOC_R][HIT] = 0
	Total_core_cache_stats_breakdown[L1_WR_ALLOC_R][HIT_RESERVED] = 0
	Total_core_cache_stats_breakdown[L1_WR_ALLOC_R][MISS] = 0
	Total_core_cache_stats_breakdown[L1_WR_ALLOC_R][RESERVATION_FAIL] = 0
	Total_core_cache_stats_breakdown[L2_WR_ALLOC_R][HIT] = 0
	Total_core_cache_stats_breakdown[L2_WR_ALLOC_R][HIT_RESERVED] = 0
	Total_core_cache_stats_breakdown[L2_WR_ALLOC_R][MISS] = 0
	Total_core_cache_stats_breakdown[L2_WR_ALLOC_R][RESERVATION_FAIL] = 0
	Total_core_cache_stats_breakdown[CONST_ACC_R][TOTAL_ACCESS] = 769184
	Total_core_cache_stats_breakdown[INST_ACC_R][TOTAL_ACCESS] = 7740000
Shader 0 warp_id issue ditsribution:
warp_id:
0, 1, 2, 3, 4, 5, 6, 7, 8, 9, 10, 11, 12, 13, 14, 15, 16, 17, 18, 19, 20, 21, 22, 23, 24, 25, 26, 27, 28, 29, 30, 31, 32, 33, 34, 35, 36, 37, 38, 39, 40, 41, 42, 43, 44, 45, 46, 47, 48, 49, 50, 51, 52, 53, 54, 55, 
distro:
9984, 12595, 12612, 12575, 12614, 12572, 12607, 10090, 9729, 12272, 12295, 12116, 12150, 12104, 12143, 9752, 9486, 11968, 11995, 11957, 11990, 11952, 11987, 9585, 9306, 11641, 11663, 11487, 11515, 11485, 11515, 9251, 9543, 11944, 11969, 11786, 11823, 11786, 11827, 9482, 9310, 11634, 11666, 11481, 11518, 11479, 11516, 9252, 9303, 11638, 11662, 11477, 11510, 11464, 11513, 9248, 
gpgpu_n_tot_thrd_icount = 485326208
gpgpu_n_tot_w_icount = 15166444
gpgpu_n_stall_shd_mem = 392266
gpgpu_n_mem_read_local = 0
gpgpu_n_mem_write_local = 0
gpgpu_n_mem_read_global = 346456
gpgpu_n_mem_write_global = 109568
gpgpu_n_mem_texture = 0
gpgpu_n_mem_const = 56
gpgpu_n_load_insn  = 3720992
gpgpu_n_store_insn = 1048576
gpgpu_n_shmem_insn = 24940324
gpgpu_n_tex_insn = 0
gpgpu_n_const_mem_insn = 0
gpgpu_n_param_mem_insn = 24613888
gpgpu_n_shmem_bkconflict = 0
gpgpu_n_cache_bkconflict = 0
gpgpu_n_intrawarp_mshr_merge = 0
gpgpu_n_cmem_portconflict = 4886
gpgpu_stall_shd_mem[c_mem][bk_conf] = 4886
gpgpu_stall_shd_mem[c_mem][mshr_rc] = 0
gpgpu_stall_shd_mem[c_mem][icnt_rc] = 0
gpgpu_stall_shd_mem[c_mem][data_port_stall] = 0
gpgpu_stall_shd_mem[t_mem][mshr_rc] = 0
gpgpu_stall_shd_mem[t_mem][icnt_rc] = 0
gpgpu_stall_shd_mem[t_mem][data_port_stall] = 0
gpgpu_stall_shd_mem[s_mem][bk_conf] = 0
gpgpu_stall_shd_mem[gl_mem][bk_conf] = 0
gpgpu_stall_shd_mem[gl_mem][coal_stall] = 320208
gpgpu_stall_shd_mem[gl_mem][data_port_stall] = 0
gpgpu_stall_shd_mem[g_mem_ld][mshr_rc] = 0
gpgpu_stall_shd_mem[g_mem_ld][icnt_rc] = 67172
gpgpu_stall_shd_mem[g_mem_ld][wb_icnt_rc] = 0
gpgpu_stall_shd_mem[g_mem_ld][wb_rsrv_fail] = 0
gpgpu_stall_shd_mem[g_mem_st][mshr_rc] = 0
gpgpu_stall_shd_mem[g_mem_st][icnt_rc] = 0
gpgpu_stall_shd_mem[g_mem_st][wb_icnt_rc] = 0
gpgpu_stall_shd_mem[g_mem_st][wb_rsrv_fail] = 0
gpgpu_stall_shd_mem[l_mem_ld][mshr_rc] = 0
gpgpu_stall_shd_mem[l_mem_ld][icnt_rc] = 0
gpgpu_stall_shd_mem[l_mem_ld][wb_icnt_rc] = 0
gpgpu_stall_shd_mem[l_mem_ld][wb_rsrv_fail] = 0
gpgpu_stall_shd_mem[l_mem_st][mshr_rc] = 0
gpgpu_stall_shd_mem[l_mem_st][icnt_rc] = 0
gpgpu_stall_shd_mem[l_mem_ld][wb_icnt_rc] = 0
gpgpu_stall_shd_mem[l_mem_ld][wb_rsrv_fail] = 0
gpu_reg_bank_conflict_stalls = 0
Warp Occupancy Distribution:
Stall:535400	W0_Idle:48676785	W0_Scoreboard:45450026	W1:0	W2:0	W3:0	W4:0	W5:8500	W6:0	W7:0	W8:28160	W9:0	W10:25600	W11:0	W12:12958	W13:8500	W14:714000	W15:0	W16:0	W17:0	W18:0	W19:0	W20:0	W21:0	W22:0	W23:0	W24:3517792	W25:0	W26:25600	W27:0	W28:3287550	W29:0	W30:0	W31:0	W32:7537784
traffic_breakdown_coretomem[CONST_ACC_R] = 448 {8:56,}
traffic_breakdown_coretomem[GLOBAL_ACC_R] = 2771648 {8:346456,}
traffic_breakdown_coretomem[GLOBAL_ACC_W] = 7856128 {40:44032,72:44032,136:21504,}
traffic_breakdown_coretomem[INST_ACC_R] = 2912 {8:364,}
traffic_breakdown_memtocore[CONST_ACC_R] = 4032 {72:56,}
traffic_breakdown_memtocore[GLOBAL_ACC_R] = 28785856 {40:114576,72:114576,136:117304,}
traffic_breakdown_memtocore[GLOBAL_ACC_W] = 876544 {8:109568,}
traffic_breakdown_memtocore[INST_ACC_R] = 49504 {136:364,}
maxmrqlatency = 578 
maxdqlatency = 0 
maxmflatency = 243881 
averagemflatency = 5525 
max_icnt2mem_latency = 243557 
max_icnt2sh_latency = 2140333 
mrq_lat_table:111274 	6069 	5993 	12112 	12748 	11751 	9837 	9718 	9458 	34 	0 	0 	0 	0 	0 	0 	0 	0 	0 	0 	0 	0 	0 	0 	0 	0 	0 	0 	0 	0 	0 	0 	
dq_lat_table:0 	0 	0 	0 	0 	0 	0 	0 	0 	0 	0 	0 	0 	0 	0 	0 	0 	0 	0 	0 	0 	0 	0 	0 	0 	0 	0 	0 	0 	0 	0 	0 	
mf_lat_table:0 	0 	0 	0 	0 	0 	0 	279169 	132711 	2268 	234 	2284 	1525 	3645 	7765 	18466 	5817 	2196 	0 	0 	0 	0 	0 	0 	0 	0 	0 	0 	0 	0 	0 	0 	
icnt2mem_lat_table:0 	0 	232366 	47494 	4393 	1126 	121613 	7325 	195 	1 	423 	2094 	1529 	3754 	8053 	18065 	5817 	2196 	0 	0 	0 	0 	0 	0 	
icnt2sh_lat_table:0 	0 	104807 	146889 	86485 	8229 	102 	0 	0 	0 	0 	0 	0 	0 	0 	0 	0 	0 	12840 	14659 	64964 	17105 	0 	0 	
mf_lat_pw_table:0 	0 	0 	0 	0 	0 	0 	388 	66 	3 	3 	13 	6 	12 	20 	30 	8 	2 	0 	0 	0 	0 	0 	0 	0 	0 	0 	0 	0 	0 	0 	0 	
maximum concurrent accesses to same row:
dram[0]:        69        70        69        70        66        67        69        70        69        70        69        70        68        66        69        70 
dram[1]:        69        70        69        70        66        63        69        70        69        70        69        70        68        65        69        70 
dram[2]:        69        70        69        70        65        65        69        70        69        70        69        70        66        66        69        70 
dram[3]:        69        70        69        70        67        63        69        70        69        70        69        70        64        66        69        70 
dram[4]:        69        70        69        70        65        66        69        70        69        70        69        70        66        65        69        70 
dram[5]:        69        70        69        70        63        66        69        70        69        70        69        70        67        69        69        70 
dram[6]:        69        70        69        70        68        64        69        70        69        70        69        70        69        66        69        70 
dram[7]:        69        70        69        70        64        65        69        70        69        70        69        70        66        66        69        70 
dram[8]:        69        70        69        70        66        64        69        70        69        70        69        70        65        66        69        70 
dram[9]:        69        70        69        70        67        63        69        70        69        70        69        70        64        66        69        70 
dram[10]:        69        70        69        70        64        67        69        70        69        70        69        70        67        66        69        70 
maximum service time to same row:
dram[0]:    259027    259104    497829    498069    256635    256501    501218    501306    377430    377334    376792    248610    254732    254730    253451    253530 
dram[1]:    259165    259484    498027    498031    496324    496117    504960    504941    377548    377494    248539    248913    254718    254714    253460    253304 
dram[2]:    259128    259478    497852    497813    495442    495448    504841    504846    377556    377419    248618    248343    254726    254725    252889    252533 
dram[3]:    259171    259143    497817    497729    374392    256693    504882    504869    377310    377428    248263    248208    254601    254637    253443    253455 
dram[4]:    259383    259619    497683    498019    256542    256699    501274    501113    377542    377553    248148    248217    254669    254654    253457    253541 
dram[5]:    259027    259103    497924    497929    256636    256483    500887    501361    377452    377398    248157    251804    254732    254731    253463    253521 
dram[6]:    259198    259520    497852    497846    496274    496021    504887    504840    377430    377400    376319    246386    254721    254718    253457    253305 
dram[7]:    257646    259492    497791    497702    496112    496114    504772    504933    377446    377268    246222    246586    254725    254727    252939    252512 
dram[8]:    259159    259186    497683    497596    256532    256576    504925    504845    377329    377370    246478    246602    254600    254624    253433    253499 
dram[9]:    259365    259470    497681    498027    256425    256563    501285    501056    377284    377301    246689    246463    254549    254648    253456    253536 
dram[10]:    264397    263758    497933    497903    256823    256448    500870    501361    377262    377270    246551    249367    254675    254664    253472    253529 
average row accesses per activate:
dram[0]: 13.126582 13.227848 10.525252 10.000000 10.320389 10.989583 11.040000 10.950000  9.687500  9.324786 10.582524  9.812500 11.229167 11.422681 12.034091 11.061855 
dram[1]: 14.273973 13.610390 10.926316 11.752809 11.692307 11.223404 12.021739 10.548077  9.872727  9.945455 11.395833 10.596154 11.934066 12.976191 12.843373 11.771739 
dram[2]: 14.164384 14.328767 11.674157 11.852273 11.365591 11.329787 11.891304 13.130953 10.046296 10.910000 12.177778 11.670213 13.084337 13.180723 13.518988 13.012048 
dram[3]: 16.015385 17.098360 11.566667 12.081395 12.734940 12.045455 13.650000 13.304878 11.142858 11.734042 12.709302 11.784946 13.419753 14.012820 13.148149 12.600000 
dram[4]: 13.933333 14.040541 10.205882 10.450000 10.865979 12.963414 13.060241 12.066667 10.722773 10.634615 11.536842 11.568421 13.759494 13.130953 13.287500 11.988889 
dram[5]: 12.081395 12.670732  9.657408  9.990385  9.869159 10.392157 11.354167 11.183674  9.687500  9.307693 10.245283 10.576923 12.436782 11.468750 10.660000 10.529411 
dram[6]: 13.657895 12.069767 12.188235 11.707865 11.284210  9.933962 11.600000 11.371134  9.738739  9.981651 11.869565 10.990000 11.989011 12.860465 12.348837 11.739130 
dram[7]: 14.647887 14.638889 12.469879 13.025000 10.927835 11.200000 13.095238 13.095238  9.981482 10.930000 12.905882 12.010870 11.967033 12.835294 12.229885 12.146068 
dram[8]: 14.633802 13.597403 11.488889 12.416667 11.703297 11.072917 13.317073 13.023809 10.500000 10.405661 12.720930 13.035714 12.616279 13.292683 13.234568 12.523255 
dram[9]: 14.301370 14.676056 10.430000 10.096154 10.485148 11.114583 13.168674 12.976191 10.000000 11.336735 12.269663 11.350515 12.066667 12.790698 13.628205 11.510638 
dram[10]: 13.075000 13.671053  9.830189 10.086538 10.455445 11.145833 12.443182 12.066667 10.158878  9.707965 11.268042 11.224490 12.593023 11.934783 11.521739 10.888889 
average row locality = 188994/16111 = 11.730743
number of total memory accesses made:
dram[0]:         0         0         0         0         0         0         0         0         0         0         0         0         0         0         0         0 
dram[1]:         0         0         0         0         0         0         0         0         0         0         0         0         0         0         0         0 
dram[2]:         0         0         0         0         0         0         0         0         0         0         0         0         0         0         0         0 
dram[3]:         0         0         0         0         0         0         0         0         0         0         0         0         0         0         0         0 
dram[4]:         0         0         0         0         0         0         0         0         0         0         0         0         0         0         0         0 
dram[5]:         0         0         0         0         0         0         0         0         0         0         0         0         0         0         0         0 
dram[6]:         0         0         0         0         0         0         0         0         0         0         0         0         0         0         0         0 
dram[7]:         0         0         0         0         0         0         0         0         0         0         0         0         0         0         0         0 
dram[8]:         0         0         0         0         0         0         0         0         0         0         0         0         0         0         0         0 
dram[9]:         0         0         0         0         0         0         0         0         0         0         0         0         0         0         0         0 
dram[10]:         0         0         0         0         0         0         0         0         0         0         0         0         0         0         0         0 
total accesses: 0
min_bank_accesses = 0!
min_chip_accesses = 0!
number of total read accesses:
dram[0]:       561       560       560       560       560       560       560       560       560       560       548       548       560       560       560       560 
dram[1]:       560       560       560       560       560       560       560       560       560       560       549       549       560       560       560       560 
dram[2]:       560       560       560       560       560       560       560       560       560       560       549       549       560       560       560       560 
dram[3]:       560       560       560       560       560       560       560       560       560       560       549       549       560       560       560       560 
dram[4]:       560       560       560       560       560       560       560       560       560       560       549       549       560       560       561       561 
dram[5]:       560       560       560       560       560       560       560       560       560       560       548       548       560       560       561       561 
dram[6]:       560       560       560       560       560       560       560       560       560       560       548       548       560       560       561       561 
dram[7]:       560       560       560       560       560       560       560       560       560       560       548       548       560       560       561       561 
dram[8]:       560       560       560       560       560       560       560       560       560       560       548       548       560       560       561       561 
dram[9]:       560       560       560       560       560       560       560       560       560       560       548       548       560       560       561       561 
dram[10]:       560       560       560       560       560       560       560       560       560       560       548       548       560       560       561       560 
total reads: 98318
bank skew: 561/548 = 1.02
chip skew: 8940/8937 = 1.00
number of total write accesses:
dram[0]:       476       485       482       490       503       495       544       535       525       531       542       551       518       548       499       513 
dram[1]:       482       488       478       486       504       495       546       537       526       534       545       553       526       530       506       523 
dram[2]:       474       486       479       483       497       505       534       543       525       531       547       548       526       534       508       520 
dram[3]:       481       483       481       479       497       500       532       531       532       543       544       547       527       533       505       511 
dram[4]:       485       479       481       485       494       503       524       526       523       546       547       550       527       543       502       518 
dram[5]:       479       479       483       479       496       500       530       536       525       529       538       552       522       541       505       513 
dram[6]:       478       478       476       482       512       493       542       543       521       528       544       551       531       546       501       519 
dram[7]:       480       494       475       482       500       504       540       540       518       533       549       557       529       531       503       520 
dram[8]:       479       487       474       483       505       503       532       534       532       543       546       547       525       530       511       516 
dram[9]:       484       482       483       490       499       507       533       530       540       551       544       553       526       540       502       521 
dram[10]:       486       479       482       489       496       510       535       526       527       537       545       552       523       538       499       518 
total reads: 90676
bank skew: 557/474 = 1.18
chip skew: 8285/8207 = 1.01
average mf latency per bank:
dram[0]:      12171     11882     20394     20682     19683     19643     12037     12426      6517      6339      9034      8956     14212     14001     12203     11824
dram[1]:      12975     13143     20662     20768     19862     19704     12291     12534      6567      6416      9156      9073     14231     14403     12227     11828
dram[2]:      12811     12909     20354     20124     19723     19702     12541     12528      6372      6003      9195      9133     14579     14588     12202     11873
dram[3]:      13245     12682     19952     20216     19745     19499     12338     12292      6414      6138      9182      9147     14436     14593     12323     11842
dram[4]:      13034     13081     19272     19428     20497     20197     12140     12056      6473      6156      8847      8481     14502     14267     11993     11561
dram[5]:      13310     13654     19193     19337     20575     20367     11744     11887      6672      6538      8330      8243     14457     14295     11268     10960
dram[6]:      13642     13225     20171     20438     19780     19752     11915     12144      6811      6588      9563      9822     14277     14453     11695     11354
dram[7]:      12991     13314     20046     19742     20361     20672     12688     13011      6575      6143      9895      9836     14817     14947     11774     11424
dram[8]:      13253     12885     19915     20044     20157     20159     12823     12644      6153      5839      9920      9864     14913     15030     11765     11462
dram[9]:      13311     12780     19277     19474     20127     19419     11998     11865      6264      5985      9986      9906     14832     14726     12350     11975
dram[10]:      12251     12640     19342     19251     20146     20000     11800     12055      6346      6153     10034      9900     14607     14159     12090     11563
maximum mf latency per bank:
dram[0]:     238799    238715    239499    239452    239260    239210    123758    123719    123046    122891    130124    130129    129822    129838    243814    243834
dram[1]:     238776    238758    239539    239524    239425    239398    123748    123755    122986    123019    130123    130135    129950    130093    243800    243829
dram[2]:     238775    238721    239704    239511    239323    239330    123755    123764    123015    122995    130125    130132    129994    130152    243808    243831
dram[3]:     238776    238773    239499    239582    239359    239380    123760    123737    123069    123072    130133    130135    129945    130069    243807    243881
dram[4]:     238763    238755    239360    239369    239323    239339    123744    123755    123051    123004    130130    130134    129849    129903    243809    129597
dram[5]:     238924    238720    239388    239418    239323    239257    123562    123729    123015    122923    130127    130124    129833    129854    129626    129729
dram[6]:     238904    238786    239554    239401    239201    239199    123731    123756    123043    123003    130136    130152    129943    130021    129802    129816
dram[7]:     238718    238829    239652    239541    239337    239378    123783    124042    122982    123015    130130    130133    129945    130040    129722    129672
dram[8]:     238835    238837    239448    239569    239365    239373    123813    123828    123011    123071    130125    130163    129991    130071    129763    129718
dram[9]:     238854    238860    239518    239384    239377    239370    123724    123734    123050    122978    130136    130138    129810    129926    243764    243774
dram[10]:     238827    238785    239542    239382    239330    239273    123741    123799    123024    122964    130139    130142    129853    129877    243797    243810
Memory Partition 0: 
Cache L2_bank_000:
MSHR contents

Cache L2_bank_001:
MSHR contents

In Dram Latency Queue (total = 0): 
DRAM[0]: 16 bks, busW=4 BL=8 CL=12, tRRD=2 tCCD=6, tRCD=12 tRAS=28 tRP=12 tRC=40
n_cmd=3561785 n_nop=3503565 n_act=1584 n_pre=1568 n_req=17174 n_rd=35748 n_write=19320 bw_util=0.03092
n_activity=193725 dram_eff=0.5685
bk0: 2244a 3541981i bk1: 2240a 3540485i bk2: 2240a 3540382i bk3: 2240a 3539125i bk4: 2240a 3540404i bk5: 2240a 3538621i bk6: 2240a 3539559i bk7: 2240a 3539128i bk8: 2240a 3539525i bk9: 2240a 3538147i bk10: 2192a 3539798i bk11: 2192a 3538843i bk12: 2240a 3540054i bk13: 2240a 3538725i bk14: 2240a 3541166i bk15: 2240a 3539376i 
dram_util_bins: 0 0 0 0 0 0 0 0 0 0
dram_eff_bins: 0 0 0 0 0 0 0 0 0 0
mrqq: max=64 avg=0.329614
Memory Partition 1: 
Cache L2_bank_002:
MSHR contents

Cache L2_bank_003:
MSHR contents

In Dram Latency Queue (total = 0): 
DRAM[1]: 16 bks, busW=4 BL=8 CL=12, tRRD=2 tCCD=6, tRCD=12 tRAS=28 tRP=12 tRC=40
n_cmd=3561785 n_nop=3503754 n_act=1485 n_pre=1469 n_req=17197 n_rd=35752 n_write=19325 bw_util=0.03093
n_activity=193483 dram_eff=0.5693
bk0: 2240a 3542285i bk1: 2240a 3540496i bk2: 2240a 3541407i bk3: 2240a 3540082i bk4: 2240a 3540429i bk5: 2240a 3539355i bk6: 2240a 3540190i bk7: 2240a 3539573i bk8: 2240a 3539181i bk9: 2240a 3538420i bk10: 2196a 3540606i bk11: 2196a 3538709i bk12: 2240a 3540464i bk13: 2240a 3539335i bk14: 2240a 3540770i bk15: 2240a 3539272i 
dram_util_bins: 0 0 0 0 0 0 0 0 0 0
dram_eff_bins: 0 0 0 0 0 0 0 0 0 0
mrqq: max=64 avg=0.326741
Memory Partition 2: 
Cache L2_bank_004:
MSHR contents

Cache L2_bank_005:
MSHR contents

In Dram Latency Queue (total = 0): 
DRAM[2]: 16 bks, busW=4 BL=8 CL=12, tRRD=2 tCCD=6, tRCD=12 tRAS=28 tRP=12 tRC=40
n_cmd=3561785 n_nop=3503897 n_act=1406 n_pre=1390 n_req=17178 n_rd=35752 n_write=19340 bw_util=0.03094
n_activity=192547 dram_eff=0.5722
bk0: 2240a 3542305i bk1: 2240a 3540559i bk2: 2240a 3541263i bk3: 2240a 3540128i bk4: 2240a 3540334i bk5: 2240a 3539469i bk6: 2240a 3540539i bk7: 2240a 3539576i bk8: 2240a 3540308i bk9: 2240a 3539569i bk10: 2196a 3540212i bk11: 2196a 3539327i bk12: 2240a 3540283i bk13: 2240a 3538508i bk14: 2240a 3540636i bk15: 2240a 3540149i 
dram_util_bins: 0 0 0 0 0 0 0 0 0 0
dram_eff_bins: 0 0 0 0 0 0 0 0 0 0
mrqq: max=64 avg=0.320541
Memory Partition 3: 
Cache L2_bank_006:
MSHR contents

Cache L2_bank_007:
MSHR contents

In Dram Latency Queue (total = 0): 
DRAM[3]: 16 bks, busW=4 BL=8 CL=12, tRRD=2 tCCD=6, tRCD=12 tRAS=28 tRP=12 tRC=40
n_cmd=3561785 n_nop=3504088 n_act=1331 n_pre=1315 n_req=17164 n_rd=35752 n_write=19299 bw_util=0.03091
n_activity=193273 dram_eff=0.5697
bk0: 2240a 3542468i bk1: 2240a 3541527i bk2: 2240a 3540981i bk3: 2240a 3540564i bk4: 2240a 3540608i bk5: 2240a 3540505i bk6: 2240a 3540365i bk7: 2240a 3539935i bk8: 2240a 3539749i bk9: 2240a 3538937i bk10: 2196a 3540441i bk11: 2196a 3539414i bk12: 2240a 3539996i bk13: 2240a 3539236i bk14: 2240a 3541730i bk15: 2240a 3540070i 
dram_util_bins: 0 0 0 0 0 0 0 0 0 0
dram_eff_bins: 0 0 0 0 0 0 0 0 0 0
mrqq: max=64 avg=0.323305
Memory Partition 4: 
Cache L2_bank_008:
MSHR contents

Cache L2_bank_009:
MSHR contents

In Dram Latency Queue (total = 0): 
DRAM[4]: 16 bks, busW=4 BL=8 CL=12, tRRD=2 tCCD=6, tRCD=12 tRAS=28 tRP=12 tRC=40
n_cmd=3561785 n_nop=3503883 n_act=1431 n_pre=1415 n_req=17173 n_rd=35760 n_write=19296 bw_util=0.03091
n_activity=192829 dram_eff=0.571
bk0: 2240a 3541490i bk1: 2240a 3540361i bk2: 2240a 3541044i bk3: 2240a 3540148i bk4: 2240a 3540932i bk5: 2240a 3539136i bk6: 2240a 3541334i bk7: 2240a 3539677i bk8: 2240a 3540065i bk9: 2240a 3538811i bk10: 2196a 3539474i bk11: 2196a 3538356i bk12: 2240a 3541178i bk13: 2240a 3539544i bk14: 2244a 3541804i bk15: 2244a 3539840i 
dram_util_bins: 0 0 0 0 0 0 0 0 0 0
dram_eff_bins: 0 0 0 0 0 0 0 0 0 0
mrqq: max=64 avg=0.324816
Memory Partition 5: 
Cache L2_bank_010:
MSHR contents

Cache L2_bank_011:
MSHR contents

In Dram Latency Queue (total = 0): 
DRAM[5]: 16 bks, busW=4 BL=8 CL=12, tRRD=2 tCCD=6, tRCD=12 tRAS=28 tRP=12 tRC=40
n_cmd=3561785 n_nop=3503558 n_act=1607 n_pre=1591 n_req=17145 n_rd=35752 n_write=19277 bw_util=0.0309
n_activity=194199 dram_eff=0.5667
bk0: 2240a 3541196i bk1: 2240a 3540804i bk2: 2240a 3541334i bk3: 2240a 3540534i bk4: 2240a 3539435i bk5: 2240a 3538767i bk6: 2240a 3540247i bk7: 2240a 3539646i bk8: 2240a 3539615i bk9: 2240a 3537830i bk10: 2192a 3540284i bk11: 2192a 3539467i bk12: 2240a 3540263i bk13: 2240a 3538093i bk14: 2244a 3540959i bk15: 2244a 3539808i 
dram_util_bins: 0 0 0 0 0 0 0 0 0 0
dram_eff_bins: 0 0 0 0 0 0 0 0 0 0
mrqq: max=64 avg=0.320071
Memory Partition 6: 
Cache L2_bank_012:
MSHR contents

Cache L2_bank_013:
MSHR contents

In Dram Latency Queue (total = 0): 
DRAM[6]: 16 bks, busW=4 BL=8 CL=12, tRRD=2 tCCD=6, tRCD=12 tRAS=28 tRP=12 tRC=40
n_cmd=3561785 n_nop=3503764 n_act=1496 n_pre=1480 n_req=17183 n_rd=35752 n_write=19293 bw_util=0.03091
n_activity=192820 dram_eff=0.5709
bk0: 2240a 3541904i bk1: 2240a 3540890i bk2: 2240a 3541975i bk3: 2240a 3540949i bk4: 2240a 3539619i bk5: 2240a 3538185i bk6: 2240a 3540162i bk7: 2240a 3539015i bk8: 2240a 3540028i bk9: 2240a 3538712i bk10: 2192a 3540385i bk11: 2192a 3539895i bk12: 2240a 3539830i bk13: 2240a 3538909i bk14: 2244a 3540930i bk15: 2244a 3539518i 
dram_util_bins: 0 0 0 0 0 0 0 0 0 0
dram_eff_bins: 0 0 0 0 0 0 0 0 0 0
mrqq: max=64 avg=0.323597
Memory Partition 7: 
Cache L2_bank_014:
MSHR contents

Cache L2_bank_015:
MSHR contents

In Dram Latency Queue (total = 0): 
DRAM[7]: 16 bks, busW=4 BL=8 CL=12, tRRD=2 tCCD=6, tRCD=12 tRAS=28 tRP=12 tRC=40
n_cmd=3561785 n_nop=3503948 n_act=1403 n_pre=1387 n_req=17193 n_rd=35752 n_write=19295 bw_util=0.03091
n_activity=192983 dram_eff=0.5705
bk0: 2240a 3542550i bk1: 2240a 3541149i bk2: 2240a 3541522i bk3: 2240a 3540623i bk4: 2240a 3540057i bk5: 2240a 3539463i bk6: 2240a 3540475i bk7: 2240a 3539888i bk8: 2240a 3539582i bk9: 2240a 3539003i bk10: 2192a 3540066i bk11: 2192a 3539079i bk12: 2240a 3540157i bk13: 2240a 3538791i bk14: 2244a 3540880i bk15: 2244a 3539609i 
dram_util_bins: 0 0 0 0 0 0 0 0 0 0
dram_eff_bins: 0 0 0 0 0 0 0 0 0 0
mrqq: max=64 avg=0.325946
Memory Partition 8: 
Cache L2_bank_016:
MSHR contents

Cache L2_bank_017:
MSHR contents

In Dram Latency Queue (total = 0): 
DRAM[8]: 16 bks, busW=4 BL=8 CL=12, tRRD=2 tCCD=6, tRCD=12 tRAS=28 tRP=12 tRC=40
n_cmd=3561785 n_nop=3503916 n_act=1390 n_pre=1374 n_req=17185 n_rd=35752 n_write=19353 bw_util=0.03094
n_activity=193729 dram_eff=0.5689
bk0: 2240a 3542529i bk1: 2240a 3540702i bk2: 2240a 3541500i bk3: 2240a 3540643i bk4: 2240a 3541175i bk5: 2240a 3539316i bk6: 2240a 3540599i bk7: 2240a 3540645i bk8: 2240a 3539880i bk9: 2240a 3538489i bk10: 2192a 3540467i bk11: 2192a 3539638i bk12: 2240a 3540460i bk13: 2240a 3540092i bk14: 2244a 3540908i bk15: 2244a 3540070i 
dram_util_bins: 0 0 0 0 0 0 0 0 0 0
dram_eff_bins: 0 0 0 0 0 0 0 0 0 0
mrqq: max=64 avg=0.323383
Memory Partition 9: 
Cache L2_bank_018:
MSHR contents

Cache L2_bank_019:
MSHR contents

In Dram Latency Queue (total = 0): 
DRAM[9]: 16 bks, busW=4 BL=8 CL=12, tRRD=2 tCCD=6, tRCD=12 tRAS=28 tRP=12 tRC=40
n_cmd=3561785 n_nop=3503726 n_act=1454 n_pre=1438 n_req=17223 n_rd=35752 n_write=19415 bw_util=0.03098
n_activity=194214 dram_eff=0.5681
bk0: 2240a 3542240i bk1: 2240a 3542126i bk2: 2240a 3541168i bk3: 2240a 3540234i bk4: 2240a 3539804i bk5: 2240a 3539090i bk6: 2240a 3540156i bk7: 2240a 3540289i bk8: 2240a 3539864i bk9: 2240a 3539058i bk10: 2192a 3540915i bk11: 2192a 3538577i bk12: 2240a 3540358i bk13: 2240a 3539660i bk14: 2244a 3541301i bk15: 2244a 3539895i 
dram_util_bins: 0 0 0 0 0 0 0 0 0 0
dram_eff_bins: 0 0 0 0 0 0 0 0 0 0
mrqq: max=64 avg=0.325708
Memory Partition 10: 
Cache L2_bank_020:
MSHR contents

Cache L2_bank_021:
MSHR contents

In Dram Latency Queue (total = 0): 
DRAM[10]: 16 bks, busW=4 BL=8 CL=12, tRRD=2 tCCD=6, tRCD=12 tRAS=28 tRP=12 tRC=40
n_cmd=3561785 n_nop=3503661 n_act=1525 n_pre=1509 n_req=17179 n_rd=35748 n_write=19342 bw_util=0.03093
n_activity=193768 dram_eff=0.5686
bk0: 2240a 3540968i bk1: 2240a 3540157i bk2: 2240a 3540810i bk3: 2240a 3539039i bk4: 2240a 3540193i bk5: 2240a 3538642i bk6: 2240a 3540415i bk7: 2240a 3539773i bk8: 2240a 3539940i bk9: 2240a 3538287i bk10: 2192a 3539888i bk11: 2192a 3539177i bk12: 2240a 3540523i bk13: 2240a 3538389i bk14: 2244a 3540713i bk15: 2240a 3539487i 
dram_util_bins: 0 0 0 0 0 0 0 0 0 0
dram_eff_bins: 0 0 0 0 0 0 0 0 0 0
mrqq: max=64 avg=0.326582

========= L2 cache stats =========
L2_cache_bank[0]: Access = 20620, Miss = 4469, Miss_rate = 0.217, Pending_hits = 7020, Reservation_fails = 5
L2_cache_bank[1]: Access = 20905, Miss = 4468, Miss_rate = 0.214, Pending_hits = 7180, Reservation_fails = 10
L2_cache_bank[2]: Access = 20570, Miss = 4469, Miss_rate = 0.217, Pending_hits = 6991, Reservation_fails = 1
L2_cache_bank[3]: Access = 20910, Miss = 4469, Miss_rate = 0.214, Pending_hits = 7136, Reservation_fails = 6
L2_cache_bank[4]: Access = 20562, Miss = 4469, Miss_rate = 0.217, Pending_hits = 6910, Reservation_fails = 6
L2_cache_bank[5]: Access = 20901, Miss = 4469, Miss_rate = 0.214, Pending_hits = 7148, Reservation_fails = 7
L2_cache_bank[6]: Access = 20556, Miss = 4469, Miss_rate = 0.217, Pending_hits = 7006, Reservation_fails = 8
L2_cache_bank[7]: Access = 20897, Miss = 4469, Miss_rate = 0.214, Pending_hits = 7098, Reservation_fails = 6
L2_cache_bank[8]: Access = 20582, Miss = 4470, Miss_rate = 0.217, Pending_hits = 6975, Reservation_fails = 6
L2_cache_bank[9]: Access = 20926, Miss = 4470, Miss_rate = 0.214, Pending_hits = 7137, Reservation_fails = 3
L2_cache_bank[10]: Access = 20583, Miss = 4469, Miss_rate = 0.217, Pending_hits = 6956, Reservation_fails = 5
L2_cache_bank[11]: Access = 20925, Miss = 4469, Miss_rate = 0.214, Pending_hits = 7171, Reservation_fails = 9
L2_cache_bank[12]: Access = 20590, Miss = 4469, Miss_rate = 0.217, Pending_hits = 7044, Reservation_fails = 6
L2_cache_bank[13]: Access = 20929, Miss = 4469, Miss_rate = 0.214, Pending_hits = 7209, Reservation_fails = 9
L2_cache_bank[14]: Access = 20586, Miss = 4469, Miss_rate = 0.217, Pending_hits = 6956, Reservation_fails = 7
L2_cache_bank[15]: Access = 20925, Miss = 4469, Miss_rate = 0.214, Pending_hits = 7140, Reservation_fails = 9
L2_cache_bank[16]: Access = 20580, Miss = 4469, Miss_rate = 0.217, Pending_hits = 6927, Reservation_fails = 5
L2_cache_bank[17]: Access = 20920, Miss = 4469, Miss_rate = 0.214, Pending_hits = 7223, Reservation_fails = 11
L2_cache_bank[18]: Access = 20578, Miss = 4469, Miss_rate = 0.217, Pending_hits = 7007, Reservation_fails = 9
L2_cache_bank[19]: Access = 20921, Miss = 4469, Miss_rate = 0.214, Pending_hits = 7077, Reservation_fails = 6
L2_cache_bank[20]: Access = 20581, Miss = 4469, Miss_rate = 0.217, Pending_hits = 6969, Reservation_fails = 4
L2_cache_bank[21]: Access = 20897, Miss = 4468, Miss_rate = 0.214, Pending_hits = 7110, Reservation_fails = 6
L2_total_cache_accesses = 456444
L2_total_cache_misses = 98318
L2_total_cache_miss_rate = 0.2154
L2_total_cache_pending_hits = 155390
L2_total_cache_reservation_fails = 144
L2_total_cache_breakdown:
	L2_cache_stats_breakdown[GLOBAL_ACC_R][HIT] = 170033
	L2_cache_stats_breakdown[GLOBAL_ACC_R][HIT_RESERVED] = 110887
	L2_cache_stats_breakdown[GLOBAL_ACC_R][MISS] = 65536
	L2_cache_stats_breakdown[GLOBAL_ACC_R][RESERVATION_FAIL] = 2
	L2_cache_stats_breakdown[LOCAL_ACC_R][HIT] = 0
	L2_cache_stats_breakdown[LOCAL_ACC_R][HIT_RESERVED] = 0
	L2_cache_stats_breakdown[LOCAL_ACC_R][MISS] = 0
	L2_cache_stats_breakdown[LOCAL_ACC_R][RESERVATION_FAIL] = 0
	L2_cache_stats_breakdown[CONST_ACC_R][HIT] = 28
	L2_cache_stats_breakdown[CONST_ACC_R][HIT_RESERVED] = 27
	L2_cache_stats_breakdown[CONST_ACC_R][MISS] = 1
	L2_cache_stats_breakdown[CONST_ACC_R][RESERVATION_FAIL] = 0
	L2_cache_stats_breakdown[TEXTURE_ACC_R][HIT] = 0
	L2_cache_stats_breakdown[TEXTURE_ACC_R][HIT_RESERVED] = 0
	L2_cache_stats_breakdown[TEXTURE_ACC_R][MISS] = 0
	L2_cache_stats_breakdown[TEXTURE_ACC_R][RESERVATION_FAIL] = 0
	L2_cache_stats_breakdown[GLOBAL_ACC_W][HIT] = 32665
	L2_cache_stats_breakdown[GLOBAL_ACC_W][HIT_RESERVED] = 44135
	L2_cache_stats_breakdown[GLOBAL_ACC_W][MISS] = 32768
	L2_cache_stats_breakdown[GLOBAL_ACC_W][RESERVATION_FAIL] = 142
	L2_cache_stats_breakdown[LOCAL_ACC_W][HIT] = 0
	L2_cache_stats_breakdown[LOCAL_ACC_W][HIT_RESERVED] = 0
	L2_cache_stats_breakdown[LOCAL_ACC_W][MISS] = 0
	L2_cache_stats_breakdown[LOCAL_ACC_W][RESERVATION_FAIL] = 0
	L2_cache_stats_breakdown[L1_WRBK_ACC][HIT] = 0
	L2_cache_stats_breakdown[L1_WRBK_ACC][HIT_RESERVED] = 0
	L2_cache_stats_breakdown[L1_WRBK_ACC][MISS] = 0
	L2_cache_stats_breakdown[L1_WRBK_ACC][RESERVATION_FAIL] = 0
	L2_cache_stats_breakdown[L2_WRBK_ACC][HIT] = 0
	L2_cache_stats_breakdown[L2_WRBK_ACC][HIT_RESERVED] = 0
	L2_cache_stats_breakdown[L2_WRBK_ACC][MISS] = 0
	L2_cache_stats_breakdown[L2_WRBK_ACC][RESERVATION_FAIL] = 0
	L2_cache_stats_breakdown[INST_ACC_R][HIT] = 10
	L2_cache_stats_breakdown[INST_ACC_R][HIT_RESERVED] = 341
	L2_cache_stats_breakdown[INST_ACC_R][MISS] = 13
	L2_cache_stats_breakdown[INST_ACC_R][RESERVATION_FAIL] = 0
	L2_cache_stats_breakdown[L1_WR_ALLOC_R][HIT] = 0
	L2_cache_stats_breakdown[L1_WR_ALLOC_R][HIT_RESERVED] = 0
	L2_cache_stats_breakdown[L1_WR_ALLOC_R][MISS] = 0
	L2_cache_stats_breakdown[L1_WR_ALLOC_R][RESERVATION_FAIL] = 0
	L2_cache_stats_breakdown[L2_WR_ALLOC_R][HIT] = 0
	L2_cache_stats_breakdown[L2_WR_ALLOC_R][HIT_RESERVED] = 0
	L2_cache_stats_breakdown[L2_WR_ALLOC_R][MISS] = 0
	L2_cache_stats_breakdown[L2_WR_ALLOC_R][RESERVATION_FAIL] = 0
	L2_cache_stats_breakdown[GLOBAL_ACC_R][TOTAL_ACCESS] = 346456
	L2_cache_stats_breakdown[CONST_ACC_R][TOTAL_ACCESS] = 56
	L2_cache_stats_breakdown[GLOBAL_ACC_W][TOTAL_ACCESS] = 109568
	L2_cache_stats_breakdown[INST_ACC_R][TOTAL_ACCESS] = 364
L2_cache_data_port_util = 0.012
L2_cache_fill_port_util = 0.009

icnt_total_pkts_mem_to_simt=1270956
icnt_total_pkts_simt_to_mem=674556
LD_mem_lat_dist  0 0 0 0 0 0 0 0 0 0 0 0 0 0 0 0 0 0 0 0 0 0 0 0 0 0 0
ST_mem_lat_dist  0 0 0 0 0 0 0 0 0 0 0 0 0 0 0 0 0 0 0 0 0 0 0 0 0 0 0
----------------------------Interconnect-DETAILS--------------------------------
Class 0:
Packet latency average = 16.5518
	minimum = 6
	maximum = 752
Network latency average = 13.065
	minimum = 6
	maximum = 747
Slowest packet = 534860
Flit latency average = 13.0567
	minimum = 6
	maximum = 743
Slowest flit = 1143041
Fragmentation average = 0.0018666
	minimum = 0
	maximum = 658
Injected packet rate average = 0.00475913
	minimum = 0.00410779 (at node 2)
	maximum = 0.00545542 (at node 41)
Accepted packet rate average = 0.00475913
	minimum = 0.00410779 (at node 2)
	maximum = 0.00545542 (at node 41)
Injected flit rate average = 0.0101425
	minimum = 0.00612846 (at node 26)
	maximum = 0.015181 (at node 37)
Accepted flit rate average= 0.0101425
	minimum = 0.00795362 (at node 34)
	maximum = 0.0121435 (at node 17)
Injected packet length average = 2.13116
Accepted packet length average = 2.13116
Total in-flight flits = 0 (0 measured)
====== Overall Traffic Statistics ======
====== Traffic class 0 ======
Packet latency average = 16.5518 (1 samples)
	minimum = 6 (1 samples)
	maximum = 752 (1 samples)
Network latency average = 13.065 (1 samples)
	minimum = 6 (1 samples)
	maximum = 747 (1 samples)
Flit latency average = 13.0567 (1 samples)
	minimum = 6 (1 samples)
	maximum = 743 (1 samples)
Fragmentation average = 0.0018666 (1 samples)
	minimum = 0 (1 samples)
	maximum = 658 (1 samples)
Injected packet rate average = 0.00475913 (1 samples)
	minimum = 0.00410779 (1 samples)
	maximum = 0.00545542 (1 samples)
Accepted packet rate average = 0.00475913 (1 samples)
	minimum = 0.00410779 (1 samples)
	maximum = 0.00545542 (1 samples)
Injected flit rate average = 0.0101425 (1 samples)
	minimum = 0.00612846 (1 samples)
	maximum = 0.015181 (1 samples)
Accepted flit rate average = 0.0101425 (1 samples)
	minimum = 0.00795362 (1 samples)
	maximum = 0.0121435 (1 samples)
Injected packet size average = 2.13116 (1 samples)
Accepted packet size average = 2.13116 (1 samples)
Hops average = 1 (1 samples)
----------------------------END-of-Interconnect-DETAILS-------------------------


gpgpu_simulation_time = 0 days, 0 hrs, 44 min, 13 sec (2653 sec)
gpgpu_simulation_rate = 156602 (inst/sec)
gpgpu_simulation_rate = 806 (cycle/sec)

GPGPU-Sim PTX: cudaLaunch for 0x0x401ae2 (mode=performance simulation) on stream 0
GPGPU-Sim PTX: pushing kernel '_Z14calculate_tempiPfS_S_iiiiffffff' to stream 0, gridDim= (86,86,1) blockDim = (16,16,1) 
GPGPU-Sim uArch: Shader 8 bind to kernel 2 '_Z14calculate_tempiPfS_S_iiiiffffff'
GPGPU-Sim uArch: Shader 9 bind to kernel 2 '_Z14calculate_tempiPfS_S_iiiiffffff'
GPGPU-Sim uArch: Shader 10 bind to kernel 2 '_Z14calculate_tempiPfS_S_iiiiffffff'
GPGPU-Sim uArch: Shader 11 bind to kernel 2 '_Z14calculate_tempiPfS_S_iiiiffffff'
GPGPU-Sim uArch: Shader 12 bind to kernel 2 '_Z14calculate_tempiPfS_S_iiiiffffff'
GPGPU-Sim uArch: Shader 13 bind to kernel 2 '_Z14calculate_tempiPfS_S_iiiiffffff'
GPGPU-Sim uArch: Shader 14 bind to kernel 2 '_Z14calculate_tempiPfS_S_iiiiffffff'
GPGPU-Sim uArch: Shader 15 bind to kernel 2 '_Z14calculate_tempiPfS_S_iiiiffffff'
GPGPU-Sim uArch: Shader 16 bind to kernel 2 '_Z14calculate_tempiPfS_S_iiiiffffff'
GPGPU-Sim uArch: Shader 17 bind to kernel 2 '_Z14calculate_tempiPfS_S_iiiiffffff'
GPGPU-Sim uArch: Shader 18 bind to kernel 2 '_Z14calculate_tempiPfS_S_iiiiffffff'
GPGPU-Sim uArch: Shader 19 bind to kernel 2 '_Z14calculate_tempiPfS_S_iiiiffffff'
GPGPU-Sim uArch: Shader 20 bind to kernel 2 '_Z14calculate_tempiPfS_S_iiiiffffff'
GPGPU-Sim uArch: Shader 21 bind to kernel 2 '_Z14calculate_tempiPfS_S_iiiiffffff'
GPGPU-Sim uArch: Shader 22 bind to kernel 2 '_Z14calculate_tempiPfS_S_iiiiffffff'
GPGPU-Sim uArch: Shader 23 bind to kernel 2 '_Z14calculate_tempiPfS_S_iiiiffffff'
GPGPU-Sim uArch: Shader 24 bind to kernel 2 '_Z14calculate_tempiPfS_S_iiiiffffff'
GPGPU-Sim uArch: Shader 25 bind to kernel 2 '_Z14calculate_tempiPfS_S_iiiiffffff'
GPGPU-Sim uArch: Shader 26 bind to kernel 2 '_Z14calculate_tempiPfS_S_iiiiffffff'
GPGPU-Sim uArch: Shader 27 bind to kernel 2 '_Z14calculate_tempiPfS_S_iiiiffffff'
GPGPU-Sim uArch: Shader 0 bind to kernel 2 '_Z14calculate_tempiPfS_S_iiiiffffff'
GPGPU-Sim uArch: Shader 1 bind to kernel 2 '_Z14calculate_tempiPfS_S_iiiiffffff'
GPGPU-Sim uArch: Shader 2 bind to kernel 2 '_Z14calculate_tempiPfS_S_iiiiffffff'
GPGPU-Sim uArch: Shader 3 bind to kernel 2 '_Z14calculate_tempiPfS_S_iiiiffffff'
GPGPU-Sim uArch: Shader 4 bind to kernel 2 '_Z14calculate_tempiPfS_S_iiiiffffff'
GPGPU-Sim uArch: Shader 5 bind to kernel 2 '_Z14calculate_tempiPfS_S_iiiiffffff'
GPGPU-Sim uArch: Shader 6 bind to kernel 2 '_Z14calculate_tempiPfS_S_iiiiffffff'
GPGPU-Sim uArch: Shader 7 bind to kernel 2 '_Z14calculate_tempiPfS_S_iiiiffffff'
GPGPU-Sim uArch: Shader 26 bind to kernel 2 '_Z14calculate_tempiPfS_S_iiiiffffff'
GPGPU-Sim uArch: Shader 27 bind to kernel 2 '_Z14calculate_tempiPfS_S_iiiiffffff'
GPGPU-Sim uArch: Shader 0 bind to kernel 2 '_Z14calculate_tempiPfS_S_iiiiffffff'
GPGPU-Sim uArch: Shader 1 bind to kernel 2 '_Z14calculate_tempiPfS_S_iiiiffffff'
GPGPU-Sim uArch: Shader 2 bind to kernel 2 '_Z14calculate_tempiPfS_S_iiiiffffff'
GPGPU-Sim uArch: Shader 3 bind to kernel 2 '_Z14calculate_tempiPfS_S_iiiiffffff'
GPGPU-Sim uArch: Shader 4 bind to kernel 2 '_Z14calculate_tempiPfS_S_iiiiffffff'
GPGPU-Sim uArch: Shader 5 bind to kernel 2 '_Z14calculate_tempiPfS_S_iiiiffffff'
GPGPU-Sim uArch: Shader 6 bind to kernel 2 '_Z14calculate_tempiPfS_S_iiiiffffff'
GPGPU-Sim uArch: Shader 7 bind to kernel 2 '_Z14calculate_tempiPfS_S_iiiiffffff'
GPGPU-Sim uArch: Shader 8 bind to kernel 2 '_Z14calculate_tempiPfS_S_iiiiffffff'
GPGPU-Sim uArch: Shader 9 bind to kernel 2 '_Z14calculate_tempiPfS_S_iiiiffffff'
GPGPU-Sim uArch: Shader 10 bind to kernel 2 '_Z14calculate_tempiPfS_S_iiiiffffff'
GPGPU-Sim uArch: Shader 11 bind to kernel 2 '_Z14calculate_tempiPfS_S_iiiiffffff'
GPGPU-Sim uArch: Shader 12 bind to kernel 2 '_Z14calculate_tempiPfS_S_iiiiffffff'
GPGPU-Sim uArch: Shader 13 bind to kernel 2 '_Z14calculate_tempiPfS_S_iiiiffffff'
GPGPU-Sim uArch: Shader 14 bind to kernel 2 '_Z14calculate_tempiPfS_S_iiiiffffff'
GPGPU-Sim uArch: Shader 15 bind to kernel 2 '_Z14calculate_tempiPfS_S_iiiiffffff'
GPGPU-Sim uArch: Shader 16 bind to kernel 2 '_Z14calculate_tempiPfS_S_iiiiffffff'
GPGPU-Sim uArch: Shader 17 bind to kernel 2 '_Z14calculate_tempiPfS_S_iiiiffffff'
GPGPU-Sim uArch: Shader 18 bind to kernel 2 '_Z14calculate_tempiPfS_S_iiiiffffff'
GPGPU-Sim uArch: Shader 19 bind to kernel 2 '_Z14calculate_tempiPfS_S_iiiiffffff'
GPGPU-Sim uArch: Shader 20 bind to kernel 2 '_Z14calculate_tempiPfS_S_iiiiffffff'
GPGPU-Sim uArch: Shader 21 bind to kernel 2 '_Z14calculate_tempiPfS_S_iiiiffffff'
GPGPU-Sim uArch: Shader 22 bind to kernel 2 '_Z14calculate_tempiPfS_S_iiiiffffff'
GPGPU-Sim uArch: Shader 23 bind to kernel 2 '_Z14calculate_tempiPfS_S_iiiiffffff'
GPGPU-Sim uArch: Shader 24 bind to kernel 2 '_Z14calculate_tempiPfS_S_iiiiffffff'
GPGPU-Sim uArch: Shader 25 bind to kernel 2 '_Z14calculate_tempiPfS_S_iiiiffffff'
GPGPU-Sim uArch: Shader 27 bind to kernel 2 '_Z14calculate_tempiPfS_S_iiiiffffff'
[...]
F:   272917----T:   275522 	 St: c0810000 Sz: 4096 	 Sm: 0 	 T: memcpy_h2d(1.758947)
F:   275522----T:   283762 	 St: c0811000 Sz: 61440 	 Sm: 0 	 T: memcpy_h2d(5.563808)
F:   283762----T:   286367 	 St: c0820000 Sz: 4096 	 Sm: 0 	 T: memcpy_h2d(1.758947)
F:   286367----T:   302062 	 St: c0821000 Sz: 126976 	 Sm: 0 	 T: memcpy_h2d(10.597569)
F:   302062----T:   304667 	 St: c0400000 Sz: 4096 	 Sm: 0 	 T: memcpy_h2d(1.758947)
F:   304667----T:   312907 	 St: c0401000 Sz: 61440 	 Sm: 0 	 T: memcpy_h2d(5.563808)
F:   312907----T:   315512 	 St: c0410000 Sz: 4096 	 Sm: 0 	 T: memcpy_h2d(1.758947)
F:   315512----T:   323752 	 St: c0411000 Sz: 61440 	 Sm: 0 	 T: memcpy_h2d(5.563808)
F:   323752----T:   326357 	 St: c0420000 Sz: 4096 	 Sm: 0 	 T: memcpy_h2d(1.758947)
F:   326357----T:   342052 	 St: c0421000 Sz: 126976 	 Sm: 0 	 T: memcpy_h2d(10.597569)
F:   349667----T:   352753 	 St: c0040000 Sz: 12288 	 Sm: 0 	 T: memcpy_h2d(2.083727)
F:   352753----T:   382536 	 St: c0043000 Sz: 249856 	 Sm: 0 	 T: memcpy_h2d(20.110062)
F:   382536----T:   385141 	 St: c0840000 Sz: 4096 	 Sm: 0 	 T: memcpy_h2d(1.758947)
F:   385141----T:   415864 	 St: c0841000 Sz: 258048 	 Sm: 0 	 T: memcpy_h2d(20.744766)
F:   421169----T:   423774 	 St: c0440000 Sz: 4096 	 Sm: 0 	 T: memcpy_h2d(1.758947)
F:   423774----T:   454497 	 St: c0441000 Sz: 258048 	 Sm: 0 	 T: memcpy_h2d(20.744766)
F:   462832----T:   465918 	 St: c0080000 Sz: 12288 	 Sm: 0 	 T: memcpy_h2d(2.083727)
F:   465918----T:   525813 	 St: c0083000 Sz: 512000 	 Sm: 0 	 T: memcpy_h2d(40.442268)
F:   525813----T:   528418 	 St: c0880000 Sz: 4096 	 Sm: 0 	 T: memcpy_h2d(1.758947)
F:   528418----T:   589254 	 St: c0881000 Sz: 520192 	 Sm: 0 	 T: memcpy_h2d(41.077652)
F:   594748----T:   597353 	 St: c0480000 Sz: 4096 	 Sm: 0 	 T: memcpy_h2d(1.758947)
F:   597353----T:   658189 	 St: c0481000 Sz: 520192 	 Sm: 0 	 T: memcpy_h2d(41.077652)
F:   682509----T:   685595 	 St: c0100000 Sz: 12288 	 Sm: 0 	 T: memcpy_h2d(2.083727)
F:   685595----T:   805743 	 St: c0103000 Sz: 1036288 	 Sm: 0 	 T: memcpy_h2d(81.126266)
F:   805743----T:   808348 	 St: c0900000 Sz: 4096 	 Sm: 0 	 T: memcpy_h2d(1.758947)
F:   808348----T:   929437 	 St: c0901000 Sz: 1044480 	 Sm: 0 	 T: memcpy_h2d(81.761650)
F:   934917----T:   937522 	 St: c0500000 Sz: 4096 	 Sm: 0 	 T: memcpy_h2d(1.758947)
F:   937522----T:  1058611 	 St: c0501000 Sz: 1044480 	 Sm: 0 	 T: memcpy_h2d(81.761650)
F:  1118532----T:  1121618 	 St: c0200000 Sz: 12288 	 Sm: 0 	 T: memcpy_h2d(2.083727)
F:  1121618----T:  1128940 	 St: c0203000 Sz: 53248 	 Sm: 0 	 T: memcpy_h2d(4.943957)
F:  1128940----T:  1131545 	 St: c0a00000 Sz: 4096 	 Sm: 0 	 T: memcpy_h2d(1.758947)
F:  1131545----T:  1139785 	 St: c0a01000 Sz: 61440 	 Sm: 0 	 T: memcpy_h2d(5.563808)
F:  1140390----T:  1142995 	 St: c0210000 Sz: 4096 	 Sm: 0 	 T: memcpy_h2d(1.758947)
F:  1142995----T:  1151235 	 St: c0211000 Sz: 61440 	 Sm: 0 	 T: memcpy_h2d(5.563808)
F:  1151235----T:  1153840 	 St: c0600000 Sz: 4096 	 Sm: 0 	 T: memcpy_h2d(1.758947)
F:  1153840----T:  1162080 	 St: c0601000 Sz: 61440 	 Sm: 0 	 T: memcpy_h2d(5.563808)
F:  1162080----T:  1164685 	 St: c0a10000 Sz: 4096 	 Sm: 0 	 T: memcpy_h2d(1.758947)
F:  1164685----T:  1172925 	 St: c0a11000 Sz: 61440 	 Sm: 0 	 T: memcpy_h2d(5.563808)
F:  1174131----T:  1177217 	 St: c0220000 Sz: 12288 	 Sm: 0 	 T: memcpy_h2d(2.083727)
F:  1177217----T:  1191975 	 St: c0223000 Sz: 118784 	 Sm: 0 	 T: memcpy_h2d(9.964889)
F:  1191975----T:  1195061 	 St: c0610000 Sz: 12288 	 Sm: 0 	 T: memcpy_h2d(2.083727)
F:  1195061----T:  1202383 	 St: c0613000 Sz: 53248 	 Sm: 0 	 T: memcpy_h2d(4.943957)
F:  1202383----T:  1204988 	 St: c0a20000 Sz: 4096 	 Sm: 0 	 T: memcpy_h2d(1.758947)
F:  1204988----T:  1220683 	 St: c0a21000 Sz: 126976 	 Sm: 0 	 T: memcpy_h2d(10.597569)
F:  1222294----T:  1224899 	 St: c0240000 Sz: 4096 	 Sm: 0 	 T: memcpy_h2d(1.758947)
F:  1224899----T:  1255622 	 St: c0241000 Sz: 258048 	 Sm: 0 	 T: memcpy_h2d(20.744766)
F:  1255622----T:  1258227 	 St: c0620000 Sz: 4096 	 Sm: 0 	 T: memcpy_h2d(1.758947)
F:  1258227----T:  1273922 	 St: c0621000 Sz: 126976 	 Sm: 0 	 T: memcpy_h2d(10.597569)
F:  1273922----T:  1276527 	 St: c0a40000 Sz: 4096 	 Sm: 0 	 T: memcpy_h2d(1.758947)
F:  1276527----T:  1307250 	 St: c0a41000 Sz: 258048 	 Sm: 0 	 T: memcpy_h2d(20.744766)
F:  1314636----T:  1317241 	 St: c0640000 Sz: 4096 	 Sm: 0 	 T: memcpy_h2d(1.758947)
F:  1317241----T:  1347964 	 St: c0641000 Sz: 258048 	 Sm: 0 	 T: memcpy_h2d(20.744766)
F:  1356580----T:  1359666 	 St: c0280000 Sz: 12288 	 Sm: 0 	 T: memcpy_h2d(2.083727)
F:  1359666----T:  1419561 	 St: c0283000 Sz: 512000 	 Sm: 0 	 T: memcpy_h2d(40.442268)
F:  1419561----T:  1422166 	 St: c0a80000 Sz: 4096 	 Sm: 0 	 T: memcpy_h2d(1.758947)
F:  1422166----T:  1483002 	 St: c0a81000 Sz: 520192 	 Sm: 0 	 T: memcpy_h2d(41.077652)
F:  1488406----T:  1491011 	 St: c0680000 Sz: 4096 	 Sm: 0 	 T: memcpy_h2d(1.758947)
F:  1491011----T:  1551847 	 St: c0681000 Sz: 520192 	 Sm: 0 	 T: memcpy_h2d(41.077652)
F:  1575499----T:  1578104 	 St: c0300000 Sz: 4096 	 Sm: 0 	 T: memcpy_h2d(1.758947)
F:  1578104----T:  1699193 	 St: c0301000 Sz: 1044480 	 Sm: 0 	 T: memcpy_h2d(81.761650)
F:  1699568----T:  1702173 	 St: c0b00000 Sz: 4096 	 Sm: 0 	 T: memcpy_h2d(1.758947)
F:  1699568----T:  1708270 	 St: c0100000 Sz: 65536 	 Sm: 0 	 T: write_back(5.875760)
F:  1708271----T:  1829360 	 St: c0b01000 Sz: 1044480 	 Sm: 0 	 T: memcpy_h2d(81.761650)
F:  1708271----T:  1716973 	 St: c0110000 Sz: 65536 	 Sm: 0 	 T: write_back(5.875760)
F:  1835311----T:  1837916 	 St: c0700000 Sz: 4096 	 Sm: 0 	 T: memcpy_h2d(1.758947)
F:  1835311----T:  1851474 	 St: c0120000 Sz: 131072 	 Sm: 0 	 T: write_back(10.913572)
F:  1851474----T:  1882667 	 St: c0140000 Sz: 262144 	 Sm: 0 	 T: write_back(21.062120)
F:  1882667----T:  1943974 	 St: c0180000 Sz: 524288 	 Sm: 0 	 T: write_back(41.395679)
F:  1943975----T:  1952677 	 St: c0800000 Sz: 65536 	 Sm: 0 	 T: write_back(5.875760)
F:  1952678----T:  2073767 	 St: c0701000 Sz: 1044480 	 Sm: 0 	 T: memcpy_h2d(81.761650)
F:  1952678----T:  1961380 	 St: c0810000 Sz: 65536 	 Sm: 0 	 T: write_back(5.875760)
F:  2362484----T:  3272495 	 	 	 Kl: 2 	 Sm: 0 	 T: kernel_launch(614.457153)
F:  2363224----T:  2366310 	 St: c0800000 Sz: 12288 	 Sm: 0 	 T: memcpy_h2d(2.083727)
F:  2363224----T:  2371926 	 St: c0830000 Sz: 65536 	 Sm: 0 	 T: write_back(5.875760)
F:  2371927----T:  2386685 	 St: c0803000 Sz: 118784 	 Sm: 0 	 T: memcpy_h2d(9.964889)
F:  2371927----T:  2380629 	 St: c0210000 Sz: 65536 	 Sm: 0 	 T: write_back(5.875760)
F:  2394176----T:  2396781 	 St: c0830000 Sz: 4096 	 Sm: 0 	 T: memcpy_h2d(1.758947)
F:  2394176----T:  2402878 	 St: c0320000 Sz: 65536 	 Sm: 0 	 T: write_back(5.875760)
F:  2396781----T:  2405021 	 St: c0831000 Sz: 61440 	 Sm: 0 	 T: memcpy_h2d(5.563808)
F:  2463599----T:  2466685 	 St: c0100000 Sz: 12288 	 Sm: 0 	 T: memcpy_h2d(2.083727)
F:  2463599----T:  2472301 	 St: c0330000 Sz: 65536 	 Sm: 0 	 T: write_back(5.875760)
F:  2472301----T:  2481003 	 St: c0340000 Sz: 65536 	 Sm: 0 	 T: write_back(5.875760)
F:  2481003----T:  2489705 	 St: c0350000 Sz: 65536 	 Sm: 0 	 T: write_back(5.875760)
F:  2489705----T:  2505868 	 St: c0300000 Sz: 131072 	 Sm: 0 	 T: write_back(10.913572)
F:  2505868----T:  2522031 	 St: c0360000 Sz: 131072 	 Sm: 0 	 T: write_back(10.913572)
F:  2522031----T:  2530733 	 St: c0200000 Sz: 65536 	 Sm: 0 	 T: write_back(5.875760)
F:  2530733----T:  2650881 	 St: c0103000 Sz: 1036288 	 Sm: 0 	 T: memcpy_h2d(81.126266)
F:  2530733----T:  2637229 	 St: c0220000 Sz: 917504 	 Sm: 0 	 T: write_back(71.908173)
F:  2637229----T:  2698536 	 St: c0380000 Sz: 524288 	 Sm: 0 	 T: write_back(41.395679)
F:  2764623----T:  2767709 	 St: c0200000 Sz: 12288 	 Sm: 0 	 T: memcpy_h2d(2.083727)
F:  2767709----T:  2775031 	 St: c0203000 Sz: 53248 	 Sm: 0 	 T: memcpy_h2d(4.943957)
F:  2775031----T:  2778843 	 St: c0210000 Sz: 20480 	 Sm: 0 	 T: memcpy_h2d(2.573936)
F:  2778843----T:  2785255 	 St: c0215000 Sz: 45056 	 Sm: 0 	 T: memcpy_h2d(4.329507)
F:  2792423----T:  2795028 	 St: c0220000 Sz: 4096 	 Sm: 0 	 T: memcpy_h2d(1.758947)
F:  2795028----T:  2810723 	 St: c0221000 Sz: 126976 	 Sm: 0 	 T: memcpy_h2d(10.597569)
F:  2817848----T:  2820453 	 St: c0240000 Sz: 4096 	 Sm: 0 	 T: memcpy_h2d(1.758947)
F:  2820453----T:  2851176 	 St: c0241000 Sz: 258048 	 Sm: 0 	 T: memcpy_h2d(20.744766)
F:  2866144----T:  2869230 	 St: c0280000 Sz: 12288 	 Sm: 0 	 T: memcpy_h2d(2.083727)
F:  2866144----T:  2874846 	 St: c0500000 Sz: 65536 	 Sm: 0 	 T: write_back(5.875760)
F:  2874847----T:  2934742 	 St: c0283000 Sz: 512000 	 Sm: 0 	 T: memcpy_h2d(40.442268)
F:  2874847----T:  2883549 	 St: c0510000 Sz: 65536 	 Sm: 0 	 T: write_back(5.875760)
F:  2968269----T:  2970874 	 St: c0300000 Sz: 4096 	 Sm: 0 	 T: memcpy_h2d(1.758947)
F:  2968269----T:  2984432 	 St: c0520000 Sz: 131072 	 Sm: 0 	 T: write_back(10.913572)
F:  2984432----T:  3015625 	 St: c0540000 Sz: 262144 	 Sm: 0 	 T: write_back(21.062120)
F:  3015625----T:  3076932 	 St: c0580000 Sz: 524288 	 Sm: 0 	 T: write_back(41.395679)
F:  3076933----T:  3085635 	 St: c0800000 Sz: 65536 	 Sm: 0 	 T: write_back(5.875760)
F:  3085636----T:  3206725 	 St: c0301000 Sz: 1044480 	 Sm: 0 	 T: memcpy_h2d(81.761650)
F:  3085636----T:  3094338 	 St: c0810000 Sz: 65536 	 Sm: 0 	 T: write_back(5.875760)
F:  3494645----T:  4408379 	 	 	 Kl: 3 	 Sm: 0 	 T: kernel_launch(616.970947)
F:  3495385----T:  3498471 	 St: c0800000 Sz: 12288 	 Sm: 0 	 T: memcpy_h2d(2.083727)
F:  3495385----T:  3504087 	 St: c0830000 Sz: 65536 	 Sm: 0 	 T: write_back(5.875760)
F:  3504088----T:  3518846 	 St: c0803000 Sz: 118784 	 Sm: 0 	 T: memcpy_h2d(9.964889)
F:  3504088----T:  3512790 	 St: c0610000 Sz: 65536 	 Sm: 0 	 T: write_back(5.875760)
F:  3526117----T:  3528722 	 St: c0830000 Sz: 4096 	 Sm: 0 	 T: memcpy_h2d(1.758947)
F:  3526117----T:  3534819 	 St: c0720000 Sz: 65536 	 Sm: 0 	 T: write_back(5.875760)
F:  3528722----T:  3536962 	 St: c0831000 Sz: 61440 	 Sm: 0 	 T: memcpy_h2d(5.563808)
F:  3595616----T:  3598702 	 St: c0500000 Sz: 12288 	 Sm: 0 	 T: memcpy_h2d(2.083727)
F:  3595616----T:  3604318 	 St: c0730000 Sz: 65536 	 Sm: 0 	 T: write_back(5.875760)
F:  3604318----T:  3613020 	 St: c0740000 Sz: 65536 	 Sm: 0 	 T: write_back(5.875760)
F:  3613020----T:  3621722 	 St: c0750000 Sz: 65536 	 Sm: 0 	 T: write_back(5.875760)
F:  3621722----T:  3637885 	 St: c0700000 Sz: 131072 	 Sm: 0 	 T: write_back(10.913572)
F:  3637885----T:  3654048 	 St: c0760000 Sz: 131072 	 Sm: 0 	 T: write_back(10.913572)
F:  3654048----T:  3662750 	 St: c0600000 Sz: 65536 	 Sm: 0 	 T: write_back(5.875760)
F:  3662750----T:  3782898 	 St: c0503000 Sz: 1036288 	 Sm: 0 	 T: memcpy_h2d(81.126266)
F:  3662750----T:  3769246 	 St: c0620000 Sz: 917504 	 Sm: 0 	 T: write_back(71.908173)
F:  3769246----T:  3830553 	 St: c0780000 Sz: 524288 	 Sm: 0 	 T: write_back(41.395679)
F:  3896233----T:  3898838 	 St: c0600000 Sz: 4096 	 Sm: 0 	 T: memcpy_h2d(1.758947)
F:  3898838----T:  3907078 	 St: c0601000 Sz: 61440 	 Sm: 0 	 T: memcpy_h2d(5.563808)
F:  3907078----T:  3909683 	 St: c0610000 Sz: 4096 	 Sm: 0 	 T: memcpy_h2d(1.758947)
F:  3909683----T:  3917923 	 St: c0611000 Sz: 61440 	 Sm: 0 	 T: memcpy_h2d(5.563808)
F:  3925105----T:  3927710 	 St: c0620000 Sz: 4096 	 Sm: 0 	 T: memcpy_h2d(1.758947)
F:  3927710----T:  3943405 	 St: c0621000 Sz: 126976 	 Sm: 0 	 T: memcpy_h2d(10.597569)
F:  3950611----T:  3953216 	 St: c0640000 Sz: 4096 	 Sm: 0 	 T: memcpy_h2d(1.758947)
F:  3953216----T:  3983939 	 St: c0641000 Sz: 258048 	 Sm: 0 	 T: memcpy_h2d(20.744766)
F:  3998713----T:  4001318 	 St: c0680000 Sz: 4096 	 Sm: 0 	 T: memcpy_h2d(1.758947)
F:  3998713----T:  4007415 	 St: c0100000 Sz: 65536 	 Sm: 0 	 T: write_back(5.875760)
F:  4007416----T:  4068252 	 St: c0681000 Sz: 520192 	 Sm: 0 	 T: memcpy_h2d(41.077652)
F:  4007416----T:  4016118 	 St: c0110000 Sz: 65536 	 Sm: 0 	 T: write_back(5.875760)
F:  4103988----T:  4106593 	 St: c0700000 Sz: 4096 	 Sm: 0 	 T: memcpy_h2d(1.758947)
F:  4103988----T:  4120151 	 St: c0120000 Sz: 131072 	 Sm: 0 	 T: write_back(10.913572)
F:  4120151----T:  4151344 	 St: c0140000 Sz: 262144 	 Sm: 0 	 T: write_back(21.062120)
F:  4151344----T:  4212651 	 St: c0180000 Sz: 524288 	 Sm: 0 	 T: write_back(41.395679)
F:  4212652----T:  4221354 	 St: c0800000 Sz: 65536 	 Sm: 0 	 T: write_back(5.875760)
F:  4221355----T:  4342444 	 St: c0701000 Sz: 1044480 	 Sm: 0 	 T: memcpy_h2d(81.761650)
F:  4221355----T:  4230057 	 St: c0810000 Sz: 65536 	 Sm: 0 	 T: write_back(5.875760)
F:  4630529----T:  5543318 	 	 	 Kl: 4 	 Sm: 0 	 T: kernel_launch(616.332886)
F:  4631271----T:  4634357 	 St: c0800000 Sz: 12288 	 Sm: 0 	 T: memcpy_h2d(2.083727)
F:  4631271----T:  4639973 	 St: c0830000 Sz: 65536 	 Sm: 0 	 T: write_back(5.875760)
F:  4639974----T:  4654732 	 St: c0803000 Sz: 118784 	 Sm: 0 	 T: memcpy_h2d(9.964889)
F:  4639974----T:  4648676 	 St: c0210000 Sz: 65536 	 Sm: 0 	 T: write_back(5.875760)
F:  4662202----T:  4664807 	 St: c0830000 Sz: 4096 	 Sm: 0 	 T: memcpy_h2d(1.758947)
F:  4662202----T:  4670904 	 St: c0320000 Sz: 65536 	 Sm: 0 	 T: write_back(5.875760)
F:  4664807----T:  4673047 	 St: c0831000 Sz: 61440 	 Sm: 0 	 T: memcpy_h2d(5.563808)
F:  4731656----T:  4734742 	 St: c0100000 Sz: 12288 	 Sm: 0 	 T: memcpy_h2d(2.083727)
F:  4731656----T:  4740358 	 St: c0330000 Sz: 65536 	 Sm: 0 	 T: write_back(5.875760)
F:  4740358----T:  4749060 	 St: c0340000 Sz: 65536 	 Sm: 0 	 T: write_back(5.875760)
F:  4749060----T:  4757762 	 St: c0350000 Sz: 65536 	 Sm: 0 	 T: write_back(5.875760)
F:  4757762----T:  4773925 	 St: c0300000 Sz: 131072 	 Sm: 0 	 T: write_back(10.913572)
F:  4773925----T:  4790088 	 St: c0360000 Sz: 131072 	 Sm: 0 	 T: write_back(10.913572)
F:  4790088----T:  4798790 	 St: c0200000 Sz: 65536 	 Sm: 0 	 T: write_back(5.875760)
F:  4798790----T:  4918938 	 St: c0103000 Sz: 1036288 	 Sm: 0 	 T: memcpy_h2d(81.126266)
F:  4798790----T:  4905286 	 St: c0220000 Sz: 917504 	 Sm: 0 	 T: write_back(71.908173)
F:  4905286----T:  4966593 	 St: c0380000 Sz: 524288 	 Sm: 0 	 T: write_back(41.395679)
F:  5032521----T:  5035607 	 St: c0200000 Sz: 12288 	 Sm: 0 	 T: memcpy_h2d(2.083727)
F:  5035607----T:  5042929 	 St: c0203000 Sz: 53248 	 Sm: 0 	 T: memcpy_h2d(4.943957)
F:  5042929----T:  5045534 	 St: c0210000 Sz: 4096 	 Sm: 0 	 T: memcpy_h2d(1.758947)
F:  5045534----T:  5053774 	 St: c0211000 Sz: 61440 	 Sm: 0 	 T: memcpy_h2d(5.563808)
F:  5060986----T:  5063591 	 St: c0220000 Sz: 4096 	 Sm: 0 	 T: memcpy_h2d(1.758947)
F:  5063591----T:  5079286 	 St: c0221000 Sz: 126976 	 Sm: 0 	 T: memcpy_h2d(10.597569)
F:  5086563----T:  5089649 	 St: c0240000 Sz: 12288 	 Sm: 0 	 T: memcpy_h2d(2.083727)
F:  5089649----T:  5119432 	 St: c0243000 Sz: 249856 	 Sm: 0 	 T: memcpy_h2d(20.110062)
F:  5134298----T:  5136903 	 St: c0280000 Sz: 4096 	 Sm: 0 	 T: memcpy_h2d(1.758947)
F:  5134298----T:  5143000 	 St: c0500000 Sz: 65536 	 Sm: 0 	 T: write_back(5.875760)
F:  5143001----T:  5203837 	 St: c0281000 Sz: 520192 	 Sm: 0 	 T: memcpy_h2d(41.077652)
F:  5143001----T:  5151703 	 St: c0510000 Sz: 65536 	 Sm: 0 	 T: write_back(5.875760)
F:  5239457----T:  5242062 	 St: c0300000 Sz: 4096 	 Sm: 0 	 T: memcpy_h2d(1.758947)
F:  5239457----T:  5255620 	 St: c0520000 Sz: 131072 	 Sm: 0 	 T: write_back(10.913572)
F:  5255620----T:  5286813 	 St: c0540000 Sz: 262144 	 Sm: 0 	 T: write_back(21.062120)
F:  5286813----T:  5348120 	 St: c0580000 Sz: 524288 	 Sm: 0 	 T: write_back(41.395679)
F:  5348121----T:  5356823 	 St: c0800000 Sz: 65536 	 Sm: 0 	 T: write_back(5.875760)
F:  5356824----T:  5477913 	 St: c0301000 Sz: 1044480 	 Sm: 0 	 T: memcpy_h2d(81.761650)
F:  5356824----T:  5365526 	 St: c0810000 Sz: 65536 	 Sm: 0 	 T: write_back(5.875760)
F:  5543318----T:  5545923 	 St: 0 Sz: 4096 	 Sm: 0 	 T: device_sync(1.758947)
F:  5543318----T:  5551558 	 St: 0 Sz: 61440 	 Sm: 0 	 T: device_sync(5.563808)
F:  5554163----T:  5556768 	 St: 0 Sz: 4096 	 Sm: 0 	 T: device_sync(1.758947)
F:  5554163----T:  5562403 	 St: 0 Sz: 61440 	 Sm: 0 	 T: device_sync(5.563808)
F:  5565008----T:  5567613 	 St: 0 Sz: 4096 	 Sm: 0 	 T: device_sync(1.758947)
F:  5565008----T:  5580703 	 St: 0 Sz: 126976 	 Sm: 0 	 T: device_sync(10.597569)
F:  5583308----T:  5585913 	 St: 0 Sz: 4096 	 Sm: 0 	 T: device_sync(1.758947)
F:  5583308----T:  5614031 	 St: 0 Sz: 258048 	 Sm: 0 	 T: device_sync(20.744766)
F:  5616636----T:  5619241 	 St: 0 Sz: 4096 	 Sm: 0 	 T: device_sync(1.758947)
F:  5616636----T:  5677472 	 St: 0 Sz: 520192 	 Sm: 0 	 T: device_sync(41.077652)
F:  5680077----T:  5682682 	 St: 0 Sz: 4096 	 Sm: 0 	 T: device_sync(1.758947)
F:  5680077----T:  5801166 	 St: 0 Sz: 1044480 	 Sm: 0 	 T: device_sync(81.761650)
F:  5803771----T:  5806376 	 St: 0 Sz: 4096 	 Sm: 0 	 T: device_sync(1.758947)
F:  5803771----T:  5812011 	 St: 0 Sz: 61440 	 Sm: 0 	 T: device_sync(5.563808)
F:  5814616----T:  5817221 	 St: 0 Sz: 4096 	 Sm: 0 	 T: device_sync(1.758947)
F:  5814616----T:  5822856 	 St: 0 Sz: 61440 	 Sm: 0 	 T: device_sync(5.563808)
F:  5825461----T:  5828066 	 St: 0 Sz: 4096 	 Sm: 0 	 T: device_sync(1.758947)
F:  5825461----T:  5841156 	 St: 0 Sz: 126976 	 Sm: 0 	 T: device_sync(10.597569)
F:  5843761----T:  5846366 	 St: 0 Sz: 4096 	 Sm: 0 	 T: device_sync(1.758947)
F:  5843761----T:  5874484 	 St: 0 Sz: 258048 	 Sm: 0 	 T: device_sync(20.744766)
F:  5877089----T:  5879694 	 St: 0 Sz: 4096 	 Sm: 0 	 T: device_sync(1.758947)
F:  5877089----T:  5937925 	 St: 0 Sz: 520192 	 Sm: 0 	 T: device_sync(41.077652)
F:  5940530----T:  5943135 	 St: 0 Sz: 4096 	 Sm: 0 	 T: device_sync(1.758947)
F:  5940530----T:  6061619 	 St: 0 Sz: 1044480 	 Sm: 0 	 T: device_sync(81.761650)
F:  6064224----T:  6066829 	 St: 0 Sz: 4096 	 Sm: 0 	 T: device_sync(1.758947)
F:  6064224----T:  6072464 	 St: 0 Sz: 61440 	 Sm: 0 	 T: device_sync(5.563808)
F:  6075069----T:  6077674 	 St: 0 Sz: 4096 	 Sm: 0 	 T: device_sync(1.758947)
F:  6075069----T:  6083309 	 St: 0 Sz: 61440 	 Sm: 0 	 T: device_sync(5.563808)
F:  6085914----T:  6088519 	 St: 0 Sz: 4096 	 Sm: 0 	 T: device_sync(1.758947)
F:  6085914----T:  6101609 	 St: 0 Sz: 126976 	 Sm: 0 	 T: device_sync(10.597569)
F:  6104214----T:  6106819 	 St: 0 Sz: 4096 	 Sm: 0 	 T: device_sync(1.758947)
F:  6104214----T:  6134937 	 St: 0 Sz: 258048 	 Sm: 0 	 T: device_sync(20.744766)
F:  6137542----T:  6140147 	 St: 0 Sz: 4096 	 Sm: 0 	 T: device_sync(1.758947)
F:  6137542----T:  6198378 	 St: 0 Sz: 520192 	 Sm: 0 	 T: device_sync(41.077652)
F:  6200983----T:  6203588 	 St: 0 Sz: 4096 	 Sm: 0 	 T: device_sync(1.758947)
F:  6200983----T:  6322072 	 St: 0 Sz: 1044480 	 Sm: 0 	 T: device_sync(81.761650)
F:  6324677----T:  6327282 	 St: 0 Sz: 4096 	 Sm: 0 	 T: device_sync(1.758947)
F:  6324677----T:  6332917 	 St: 0 Sz: 61440 	 Sm: 0 	 T: device_sync(5.563808)
F:  6335522----T:  6338127 	 St: 0 Sz: 4096 	 Sm: 0 	 T: device_sync(1.758947)
F:  6335522----T:  6343762 	 St: 0 Sz: 61440 	 Sm: 0 	 T: device_sync(5.563808)
F:  6346367----T:  6348972 	 St: 0 Sz: 4096 	 Sm: 0 	 T: device_sync(1.758947)
F:  6346367----T:  6362062 	 St: 0 Sz: 126976 	 Sm: 0 	 T: device_sync(10.597569)
F:  6364667----T:  6367272 	 St: 0 Sz: 4096 	 Sm: 0 	 T: device_sync(1.758947)
F:  6364667----T:  6395390 	 St: 0 Sz: 258048 	 Sm: 0 	 T: device_sync(20.744766)
F:  6397995----T:  6400600 	 St: 0 Sz: 4096 	 Sm: 0 	 T: device_sync(1.758947)
F:  6397995----T:  6458831 	 St: 0 Sz: 520192 	 Sm: 0 	 T: device_sync(41.077652)
Tot_prefetch_time: 0(cycle), 0.000000(us)
Tot_kernel_exec_time: 4654718(cycle), 3142.956055(us)
Tot_kernel_exec_time_and_fault_time: 8853353(cycle), 5977.956055(us)
Tot_memcpy_h2d_time: 2792497(cycle), 1885.548218(us)
Tot_memcpy_d2h_time: 0(cycle), 0.000000(us)
Tot_memcpy_time: 2792497(cycle), 1885.548218(us)
Tot_devicesync_time: 918118(cycle), 619.931152(us)
Tot_writeback_time: 1357013(cycle), 916.281555(us)
Tot_dma_time: 0(cycle), 0.000000(us)
Tot_memcpy_d2h_sync_wb_time: 2275131(cycle), 1536.212646(us)
GPGPU-Sim: *** exit detected ***
