

        *** GPGPU-Sim Simulator Version 3.2.2  [build gpgpu-sim_git-commit-ccc09f1cf63a6cc8b61cc8f41f59ef817e0fb5a2_modified_0] ***


GPGPU-Sim PTX: simulation mode 0 (can change with PTX_SIM_MODE_FUNC environment variable:
               1=functional simulation only, 0=detailed performance simulator)
GPGPU-Sim: Configuration options:

-network_mode                           1 # Interconnection network mode
-inter_config_file   config_fermi_islip.icnt # Interconnection network config file
-gpgpu_ptx_use_cuobjdump                    1 # Use cuobjdump to extract ptx and sass from binaries
-gpgpu_experimental_lib_support                    0 # Try to extract code from cuda libraries [Broken because of unknown cudaGetExportTable]
-gpgpu_ptx_convert_to_ptxplus                    0 # Convert SASS (native ISA) to ptxplus and run ptxplus
-gpgpu_ptx_force_max_capability                   20 # Force maximum compute capability
-gpgpu_ptx_inst_debug_to_file                    0 # Dump executed instructions' debug information to file
-gpgpu_ptx_inst_debug_file       inst_debug.txt # Executed instructions' debug output file
-gpgpu_ptx_inst_debug_thread_uid                    1 # Thread UID for executed instructions' debug output
-gpgpu_simd_model                       1 # 1 = post-dominator
-gpgpu_shader_core_pipeline              2048:32 # shader core pipeline config, i.e., {<nthread>:<warpsize>}
-gpgpu_tex_cache:l1  16:128:24,L:R:m:N:L,F:128:4,128:2 # per-shader L1 texture cache  (READ-ONLY) config  {<nsets>:<bsize>:<assoc>,<rep>:<wr>:<alloc>:<wr_alloc>,<mshr>:<N>:<merge>,<mq>:<rf>}
-gpgpu_const_cache:l1 128:64:2,L:R:f:N:L,A:2:64,4 # per-shader L1 constant memory cache  (READ-ONLY) config  {<nsets>:<bsize>:<assoc>,<rep>:<wr>:<alloc>:<wr_alloc>,<mshr>:<N>:<merge>,<mq>} 
-gpgpu_cache:il1     8:128:4,L:R:f:N:L,A:2:48,4 # shader L1 instruction cache config  {<nsets>:<bsize>:<assoc>,<rep>:<wr>:<alloc>:<wr_alloc>,<mshr>:<N>:<merge>,<mq>} 
-gpgpu_cache:dl1     64:128:6,L:L:m:N:H,A:128:8,8 # per-shader L1 data cache config  {<nsets>:<bsize>:<assoc>,<rep>:<wr>:<alloc>:<wr_alloc>,<mshr>:<N>:<merge>,<mq> | none}
-gpgpu_cache:dl1PrefL1                 none # per-shader L1 data cache config  {<nsets>:<bsize>:<assoc>,<rep>:<wr>:<alloc>:<wr_alloc>,<mshr>:<N>:<merge>,<mq> | none}
-gpgpu_cache:dl1PrefShared                 none # per-shader L1 data cache config  {<nsets>:<bsize>:<assoc>,<rep>:<wr>:<alloc>:<wr_alloc>,<mshr>:<N>:<merge>,<mq> | none}
-gmem_skip_L1D                          1 # global memory access skip L1D cache (implements -Xptxas -dlcm=cg, default=no skip)
-gpgpu_perfect_mem                      0 # enable perfect memory mode (no cache miss)
-n_regfile_gating_group                    4 # group of lanes that should be read/written together)
-gpgpu_clock_gated_reg_file                    0 # enable clock gated reg file for power calculations
-gpgpu_clock_gated_lanes                    0 # enable clock gated lanes for power calculations
-gpgpu_shader_registers                65536 # Number of registers per shader core. Limits number of concurrent CTAs. (default 8192)
-gpgpu_shader_cta                      32 # Maximum number of concurrent CTAs in shader (default 8)
-gpgpu_num_cta_barriers                   16 # Maximum number of named barriers per CTA (default 16)
-gpgpu_n_clusters                      28 # number of processing clusters
-gpgpu_n_cores_per_cluster                    1 # number of simd cores per cluster
-gpgpu_n_cluster_ejection_buffer_size                    8 # number of packets in ejection buffer
-gpgpu_n_ldst_response_buffer_size                    2 # number of response packets in ld/st unit ejection buffer
-gpgpu_shmem_size                   16384 # Size of shared memory per shader core (default 16kB)
-gpgpu_shmem_size                   98304 # Size of shared memory per shader core (default 16kB)
-gpgpu_shmem_size_PrefL1                16384 # Size of shared memory per shader core (default 16kB)
-gpgpu_shmem_size_PrefShared                16384 # Size of shared memory per shader core (default 16kB)
-gpgpu_shmem_num_banks                   32 # Number of banks in the shared memory in each shader core (default 16)
-gpgpu_shmem_limited_broadcast                    0 # Limit shared memory to do one broadcast per cycle (default on)
-gpgpu_shmem_warp_parts                    1 # Number of portions a warp is divided into for shared memory bank conflict check 
-gpgpu_warpdistro_shader                   -1 # Specify which shader core to collect the warp size distribution from
-gpgpu_warp_issue_shader                    0 # Specify which shader core to collect the warp issue distribution from
-gpgpu_local_mem_map                    1 # Mapping from local memory space address to simulated GPU physical address space (default = enabled)
-gpgpu_num_reg_banks                   32 # Number of register banks (default = 8)
-gpgpu_reg_bank_use_warp_id                    0 # Use warp ID in mapping registers to banks (default = off)
-gpgpu_operand_collector_num_units_sp                   20 # number of collector units (default = 4)
-gpgpu_operand_collector_num_units_sfu                    4 # number of collector units (default = 4)
-gpgpu_operand_collector_num_units_mem                    8 # number of collector units (default = 2)
-gpgpu_operand_collector_num_units_gen                    0 # number of collector units (default = 0)
-gpgpu_operand_collector_num_in_ports_sp                    4 # number of collector unit in ports (default = 1)
-gpgpu_operand_collector_num_in_ports_sfu                    1 # number of collector unit in ports (default = 1)
-gpgpu_operand_collector_num_in_ports_mem                    1 # number of collector unit in ports (default = 1)
-gpgpu_operand_collector_num_in_ports_gen                    0 # number of collector unit in ports (default = 0)
-gpgpu_operand_collector_num_out_ports_sp                    4 # number of collector unit in ports (default = 1)
-gpgpu_operand_collector_num_out_ports_sfu                    1 # number of collector unit in ports (default = 1)
-gpgpu_operand_collector_num_out_ports_mem                    1 # number of collector unit in ports (default = 1)
-gpgpu_operand_collector_num_out_ports_gen                    0 # number of collector unit in ports (default = 0)
-gpgpu_coalesce_arch                   13 # Coalescing arch (default = 13, anything else is off for now)
-gpgpu_num_sched_per_core                    2 # Number of warp schedulers per core
-gpgpu_max_insn_issue_per_warp                    2 # Max number of instructions that can be issued per warp in one cycle by scheduler
-gpgpu_simt_core_sim_order                    1 # Select the simulation order of cores in a cluster (0=Fix, 1=Round-Robin)
-gpgpu_pipeline_widths        4,1,1,4,1,1,6 # Pipeline widths ID_OC_SP,ID_OC_SFU,ID_OC_MEM,OC_EX_SP,OC_EX_SFU,OC_EX_MEM,EX_WB
-gpgpu_num_sp_units                     4 # Number of SP units (default=1)
-gpgpu_num_sfu_units                    1 # Number of SF units (default=1)
-gpgpu_num_mem_units                    1 # Number if ldst units (default=1) WARNING: not hooked up to anything
-gpgpu_scheduler                      gto # Scheduler configuration: < lrr | gto | two_level_active > If two_level_active:<num_active_warps>:<inner_prioritization>:<outer_prioritization>For complete list of prioritization values see shader.h enum scheduler_prioritization_typeDefault: gto
-gpgpu_concurrent_kernel_sm                    0 # Support concurrent kernels on a SM (default = disabled)
-tlb_size                            4096 # Number of tlb entries per SM.
-gpgpu_dram_scheduler                    1 # 0 = fifo, 1 = FR-FCFS (defaul)
-gpgpu_dram_partition_queues              8:8:8:8 # i2$:$2d:d2$:$2i
-l2_ideal                               0 # Use a ideal L2 cache that always hit
-gpgpu_cache:dl2     64:128:16,L:B:m:W:L,A:1024:1024,4:0,32 # unified banked L2 data cache config  {<nsets>:<bsize>:<assoc>,<rep>:<wr>:<alloc>:<wr_alloc>,<mshr>:<N>:<merge>,<mq>}
-gpgpu_cache:dl2_texture_only                    0 # L2 cache used for texture only
-gpgpu_n_mem                           11 # number of memory modules (e.g. memory controllers) in gpu
-gpgpu_n_sub_partition_per_mchannel                    2 # number of memory subpartition in each memory module
-gpgpu_n_mem_per_ctrlr                    1 # number of memory chips per memory controller
-gpgpu_memlatency_stat                   14 # track and display latency statistics 0x2 enables MC, 0x4 enables queue logs
-gpgpu_frfcfs_dram_sched_queue_size                   64 # 0 = unlimited (default); # entries per chip
-gpgpu_dram_return_queue_size                  116 # 0 = unlimited (default); # entries per chip
-gpgpu_dram_buswidth                    4 # default = 4 bytes (8 bytes per cycle at DDR)
-gpgpu_dram_burst_length                    8 # Burst length of each DRAM request (default = 4 data bus cycle)
-dram_data_command_freq_ratio                    4 # Frequency ratio between DRAM data bus and command bus (default = 2 times, i.e. DDR)
-gpgpu_dram_timing_opt nbk=16:CCD=2:RRD=6:RCD=12:RAS=28:RP=12:RC=40: CL=12:WL=4:CDLR=5:WR=12:nbkgrp=1:CCDL=0:RTPL=0 # DRAM timing parameters = {nbk:tCCD:tRRD:tRCD:tRAS:tRP:tRC:CL:WL:tCDLR:tWR:nbkgrp:tCCDL:tRTPL}
-rop_latency                          120 # ROP queue latency (default 85)
-dram_latency                         100 # DRAM latency (default 30)
-gpgpu_mem_addr_mapping dramid@8;00000000.00000000.00000000.00000000.0000RRRR.RRRRRRRR.RBBBCCCC.BCCSSSSS # mapping memory address to dram model {dramid@<start bit>;<memory address map>}
-gpgpu_mem_addr_test                    0 # run sweep test to check address mapping for aliased address
-gpgpu_mem_address_mask                    1 # 0 = old addressing mask, 1 = new addressing mask, 2 = new add. mask + flipped bank sel and chip sel bits
-gpuwattch_xml_file  gpuwattch_geforcegtx1080ti.xml # GPUWattch XML file
-power_simulation_enabled                    1 # Turn on power simulator (1=On, 0=Off)
-power_per_cycle_dump                    0 # Dump detailed power output each cycle
-power_trace_enabled                    0 # produce a file for the power trace (1=On, 0=Off)
-power_trace_zlevel                     6 # Compression level of the power trace output log (0=no comp, 9=highest)
-steady_power_levels_enabled                    0 # produce a file for the steady power levels (1=On, 0=Off)
-steady_state_definition                  8:4 # allowed deviation:number of samples
-gpgpu_max_cycle                        0 # terminates gpu simulation early (0 = no limit)
-gpgpu_max_insn                         0 # terminates gpu simulation early (0 = no limit)
-gpgpu_max_cta                          0 # terminates gpu simulation early (0 = no limit)
-gpgpu_runtime_stat                   500 # display runtime statistics such as dram utilization {<freq>:<flag>}
-liveness_message_freq                    1 # Minimum number of seconds between simulation liveness messages (0 = always print)
-gpgpu_flush_l1_cache                    0 # Flush L1 cache at the end of each kernel call
-gpgpu_flush_l2_cache                    0 # Flush L2 cache at the end of each kernel call
-gpgpu_deadlock_detect                    0 # Stop the simulation at deadlock (1=on (default), 0=off)
-gpgpu_ptx_instruction_classification                    0 # if enabled will classify ptx instruction types per kernel (Max 255 kernels now)
-gpgpu_ptx_sim_mode                     0 # Select between Performance (default) or Functional simulation (1)
-gpgpu_clock_domains 1481.0:2962.0:1481.0:2750.0 # Clock Domain Frequencies in MhZ {<Core Clock>:<ICNT Clock>:<L2 Clock>:<DRAM Clock>}
-gpgpu_max_concurrent_kernel                    8 # maximum kernels that can run concurrently on GPU
-gpgpu_cflog_interval                    0 # Interval between each snapshot in control flow logger
-visualizer_enabled                     0 # Turn on visualizer output (1=On, 0=Off)
-visualizer_outputfile                 NULL # Specifies the output log file for visualizer
-visualizer_zlevel                      6 # Compression level of the visualizer output log (0=no comp, 9=highest)
-trace_enabled                          0 # Turn on traces
-trace_components                    none # comma seperated list of traces to enable. Complete list found in trace_streams.tup. Default none
-trace_sampling_core                    0 # The core which is printed using CORE_DPRINTF. Default 0
-trace_sampling_memory_partition                   -1 # The memory partition which is printed using MEMPART_DPRINTF. Default -1 (i.e. all)
-gddr_size                       3.6364MB # Size of GDDR in MB/GB.(GLOBAL_HEAP_START, GLOBAL_HEAP_START + gddr_size) would be used for unmanged memory, (GLOBAL_HEAP_START + gddr_size, GLOBAL_HEAP_START + gddr_size*2) would be used for managed memory. 
-page_table_walk_latency                  100 # Average page table walk latency (in core cycle).
-eviction_policy                        1 # Select page eviction policy
-reserve_accessed_page_percent                    0 # Percentage of accessed pages reserved from eviction in hope that they will be accessed in next iteration.
-percentage_of_free_page_buffer                    0 # Percentage of free page buffer to trigger the page eviction.
-page_size                            4KB # GDDR page size, only 4KB/2MB avaliable.
-pcie_bandwidth                  16.0GB/s # PCI-e bandwidth per direction, in GB/s.
-enable_nvlink                          0 # Enable nvlink 2.0, 150.0GB/s
-enable_rdma                            0 # Enable remote direct memory access
-migrate_threshold                     10 # Access counter threshold for migrating the page from cpu to gpu
-sim_prof_enable                        1 # Enable gpgpu-sim profiler
-hardware_prefetch                      1 # Select gpgpu-sim hardware prefetcher
-hwprefetch_oversub                     0 # Select gpgpu-sim hardware prefetcher under over-subscription
-page_fault_latency                 66645 # Average fault latency (in core cycle).
-enable_accurate_simulation                    0 # Enable page fault functional simulation.
-enable_ptx_file_line_stats                    1 # Turn on PTX source line statistic profiling. (1 = On)
-ptx_line_stats_filename gpgpu_inst_stats.txt # Output file for PTX source line statistics.
-gpgpu_kernel_launch_latency               222150 # Kernel launch latency in cycles. Default: 0
-gpgpu_cdp_enabled                      0 # Turn on CDP
-save_embedded_ptx                      0 # saves ptx files embedded in binary as <n>.ptx
-keep                                   0 # keep intermediate files created by GPGPU-Sim when interfacing with external programs
-gpgpu_ptx_save_converted_ptxplus                    0 # Saved converted ptxplus to a file
-ptx_opcode_latency_int         4,13,4,5,145 # Opcode latencies for integers <ADD,MAX,MUL,MAD,DIV>Default 1,1,19,25,145
-ptx_opcode_latency_fp          4,13,4,5,39 # Opcode latencies for single precision floating points <ADD,MAX,MUL,MAD,DIV>Default 1,1,1,1,30
-ptx_opcode_latency_dp         8,19,8,8,330 # Opcode latencies for double precision floating points <ADD,MAX,MUL,MAD,DIV>Default 8,8,8,8,335
-ptx_opcode_initiation_int            1,2,2,2,8 # Opcode initiation intervals for integers <ADD,MAX,MUL,MAD,DIV>Default 1,1,4,4,32
-ptx_opcode_initiation_fp            1,2,1,1,4 # Opcode initiation intervals for single precision floating points <ADD,MAX,MUL,MAD,DIV>Default 1,1,1,1,5
-ptx_opcode_initiation_dp          1,2,1,1,130 # Opcode initiation intervals for double precision floating points <ADD,MAX,MUL,MAD,DIV>Default 8,8,8,8,130
-cdp_latency         7200,8000,100,12000,1600 # CDP API latency <cudaStreamCreateWithFlags, cudaGetParameterBufferV2_init_perWarp, cudaGetParameterBufferV2_perKernel, cudaLaunchDeviceV2_init_perWarp, cudaLaunchDevicV2_perKernel>Default 7200,8000,100,12000,1600
DRAM Timing Options:
nbk                                    16 # number of banks
CCD                                     2 # column to column delay
RRD                                     6 # minimal delay between activation of rows in different banks
RCD                                    12 # row to column delay
RAS                                    28 # time needed to activate row
RP                                     12 # time needed to precharge (deactivate) row
RC                                     40 # row cycle time
CDLR                                    5 # switching from write to read (changes tWTR)
WR                                     12 # last data-in to row precharge
CL                                     12 # CAS latency
WL                                      4 # Write latency
nbkgrp                                  1 # number of bank groups
CCDL                                    0 # column to column delay between accesses to different bank groups
RTPL                                    0 # read to precharge delay between accesses to different bank groups
Total number of memory sub partition = 22
addr_dec_mask[CHIP]  = 0000000000000000 	high:64 low:0
addr_dec_mask[BK]    = 0000000000007080 	high:15 low:7
addr_dec_mask[ROW]   = 000000000fff8000 	high:28 low:15
addr_dec_mask[COL]   = 0000000000000f7f 	high:12 low:0
addr_dec_mask[BURST] = 000000000000001f 	high:5 low:0
sub_partition_id_mask = 0000000000000080
GPGPU-Sim uArch: clock freqs: 1481000000.000000:2962000000.000000:1481000000.000000:2750000000.000000
GPGPU-Sim uArch: clock periods: 0.00000000067521944632:0.00000000033760972316:0.00000000067521944632:0.00000000036363636364
*** Initializing Memory Statistics ***
GPGPU-Sim uArch: interconnect node map (shaderID+MemID to icntID)
GPGPU-Sim uArch: Memory nodes ID start from index: 28
GPGPU-Sim uArch:    0   1   2   3   4   5   6
GPGPU-Sim uArch:    7   8   9  10  11  12  13
GPGPU-Sim uArch:   14  15  16  17  18  19  20
GPGPU-Sim uArch:   21  22  23  24  25  26  27
GPGPU-Sim uArch:   28  29  30  31  32  33  34
GPGPU-Sim uArch:   35  36  37  38  39  40  41
GPGPU-Sim uArch:   42  43  44  45  46  47  48
GPGPU-Sim uArch:   49
GPGPU-Sim uArch: interconnect node reverse map (icntID to shaderID+MemID)
GPGPU-Sim uArch: Memory nodes start from ID: 28
GPGPU-Sim uArch:    0   1   2   3   4   5   6
GPGPU-Sim uArch:    7   8   9  10  11  12  13
GPGPU-Sim uArch:   14  15  16  17  18  19  20
GPGPU-Sim uArch:   21  22  23  24  25  26  27
GPGPU-Sim uArch:   28  29  30  31  32  33  34
GPGPU-Sim uArch:   35  36  37  38  39  40  41
GPGPU-Sim uArch:   42  43  44  45  46  47  48
GPGPU-Sim uArch:   49
8316e76a1b0f5e691cc0dd7284e569c5  /home/gpuser/Desktop/gpgpu-sim_UVMSmart/benchmarks/Managed/stencil/main
GPGPU-Sim uArch: performance model initialization complete.
GPGPU-Sim PTX: __cudaRegisterFatBinary, fat_cubin_handle = 1, filename=default
self exe links to: /home/gpuser/Desktop/gpgpu-sim_UVMSmart/benchmarks/Managed/stencil/main
Running md5sum using "md5sum /home/gpuser/Desktop/gpgpu-sim_UVMSmart/benchmarks/Managed/stencil/main "
Parsing file _cuobjdump_complete_output_sM3Jfr
######### cuobjdump parser ########
## Adding new section ELF
Adding arch: sm_20
Adding identifier: default
## Adding new section ELF
Adding arch: sm_20
Adding identifier: default
## Adding new section PTX
Adding ptx filename: _cuobjdump_1.ptx
Adding arch: sm_20
Adding identifier: default
## Adding new section ELF
Adding arch: sm_20
Adding identifier: default
## Adding new section PTX
Adding ptx filename: _cuobjdump_2.ptx
Adding arch: sm_20
Adding identifier: default
Done parsing!!!
GPGPU-Sim PTX: __cudaRegisterFatBinary, fat_cubin_handle = 2, filename=default
GPGPU-Sim PTX: __cudaRegisterFunction _Z24block2D_hybrid_coarsen_xffPfS_iii : hostFun 0x0x401496, fat_cubin_handle = 2
GPGPU-Sim PTX: allocating shared region for "sh_A0" from 0x0 to 0x0 (shared memory space)
GPGPU-Sim PTX: instruction assembly for function '_Z24block2D_hybrid_coarsen_xffPfS_iii'...   done.
GPGPU-Sim PTX: finding reconvergence points for '_Z24block2D_hybrid_coarsen_xffPfS_iii'...
GPGPU-Sim PTX: Finding dominators for '_Z24block2D_hybrid_coarsen_xffPfS_iii'...
GPGPU-Sim PTX: Finding immediate dominators for '_Z24block2D_hybrid_coarsen_xffPfS_iii'...
GPGPU-Sim PTX: Finding postdominators for '_Z24block2D_hybrid_coarsen_xffPfS_iii'...
GPGPU-Sim PTX: Finding immediate postdominators for '_Z24block2D_hybrid_coarsen_xffPfS_iii'...
GPGPU-Sim PTX: pre-decoding instructions for '_Z24block2D_hybrid_coarsen_xffPfS_iii'...
GPGPU-Sim PTX: reconvergence points for _Z24block2D_hybrid_coarsen_xffPfS_iii...
GPGPU-Sim PTX:  1 (potential) branch divergence @  PC=0x170 (_2.ptx:82) @!%p13 bra BB0_2;
GPGPU-Sim PTX:    immediate post dominator      @  PC=0x200 (_2.ptx:104) mov.f32 %f64, %f69;
GPGPU-Sim PTX:  2 (potential) branch divergence @  PC=0x178 (_2.ptx:83) bra.uni BB0_1;
GPGPU-Sim PTX:    immediate post dominator      @  PC=0x180 (_2.ptx:86) mad.lo.s32 %r33, %r3, %r6, %r1;
GPGPU-Sim PTX:  3 (potential) branch divergence @  PC=0x228 (_2.ptx:109) @!%p16 bra BB0_4;
GPGPU-Sim PTX:    immediate post dominator      @  PC=0x2b0 (_2.ptx:130) mov.f32 %f67, %f68;
GPGPU-Sim PTX:  4 (potential) branch divergence @  PC=0x230 (_2.ptx:110) bra.uni BB0_3;
GPGPU-Sim PTX:    immediate post dominator      @  PC=0x238 (_2.ptx:113) mad.lo.s32 %r58, %r3, %r6, %r2;
GPGPU-Sim PTX:  5 (potential) branch divergence @  PC=0x2d0 (_2.ptx:134) @%p17 bra BB0_33;
GPGPU-Sim PTX:    immediate post dominator      @  PC=0x868 (_2.ptx:370) ret;
GPGPU-Sim PTX:  6 (potential) branch divergence @  PC=0x300 (_2.ptx:143) @!%p13 bra BB0_8;
GPGPU-Sim PTX:    immediate post dominator      @  PC=0x348 (_2.ptx:156) @!%p5 bra BB0_19;
GPGPU-Sim PTX:  7 (potential) branch divergence @  PC=0x308 (_2.ptx:144) bra.uni BB0_7;
GPGPU-Sim PTX:    immediate post dominator      @  PC=0x310 (_2.ptx:147) add.s32 %r75, %r273, 1;
GPGPU-Sim PTX:  8 (potential) branch divergence @  PC=0x348 (_2.ptx:156) @!%p5 bra BB0_19;
GPGPU-Sim PTX:    immediate post dominator      @  PC=0x590 (_2.ptx:251) @!%p16 bra BB0_21;
GPGPU-Sim PTX:  9 (potential) branch divergence @  PC=0x350 (_2.ptx:157) bra.uni BB0_9;
GPGPU-Sim PTX:    immediate post dominator      @  PC=0x358 (_2.ptx:160) add.s32 %r89, %r13, -1;
GPGPU-Sim PTX: 10 (potential) branch divergence @  PC=0x368 (_2.ptx:162) @%p21 bra BB0_11;
GPGPU-Sim PTX:    immediate post dominator      @  PC=0x3e8 (_2.ptx:184) setp.eq.s32%p22, %r15, 0;
GPGPU-Sim PTX: 11 (potential) branch divergence @  PC=0x370 (_2.ptx:163) bra.uni BB0_10;
GPGPU-Sim PTX:    immediate post dominator      @  PC=0x3b8 (_2.ptx:176) shl.b32 %r92, %r11, 1;
GPGPU-Sim PTX: 12 (potential) branch divergence @  PC=0x3b0 (_2.ptx:173) bra.uni BB0_12;
GPGPU-Sim PTX:    immediate post dominator      @  PC=0x3e8 (_2.ptx:184) setp.eq.s32%p22, %r15, 0;
GPGPU-Sim PTX: 13 (potential) branch divergence @  PC=0x3f0 (_2.ptx:185) @%p22 bra BB0_14;
GPGPU-Sim PTX:    immediate post dominator      @  PC=0x470 (_2.ptx:207) setp.eq.s32%p23, %r12, 0;
GPGPU-Sim PTX: 14 (potential) branch divergence @  PC=0x3f8 (_2.ptx:186) bra.uni BB0_13;
GPGPU-Sim PTX:    immediate post dominator      @  PC=0x440 (_2.ptx:199) shl.b32 %r111, %r11, 1;
GPGPU-Sim PTX: 15 (potential) branch divergence @  PC=0x438 (_2.ptx:196) bra.uni BB0_15;
GPGPU-Sim PTX:    immediate post dominator      @  PC=0x470 (_2.ptx:207) setp.eq.s32%p23, %r12, 0;
GPGPU-Sim PTX: 16 (potential) branch divergence @  PC=0x478 (_2.ptx:208) @%p23 bra BB0_17;
GPGPU-Sim PTX:    immediate post dominator      @  PC=0x4f0 (_2.ptx:229) mad.lo.s32 %r149, %r273, %r7, %r3;
GPGPU-Sim PTX: 17 (potential) branch divergence @  PC=0x480 (_2.ptx:209) bra.uni BB0_16;
GPGPU-Sim PTX:    immediate post dominator      @  PC=0x4c8 (_2.ptx:222) shl.b32 %r129, %r11, 1;
GPGPU-Sim PTX: 18 (potential) branch divergence @  PC=0x4c0 (_2.ptx:219) bra.uni BB0_18;
GPGPU-Sim PTX:    immediate post dominator      @  PC=0x4f0 (_2.ptx:229) mad.lo.s32 %r149, %r273, %r7, %r3;
GPGPU-Sim PTX: 19 (potential) branch divergence @  PC=0x590 (_2.ptx:251) @!%p16 bra BB0_21;
GPGPU-Sim PTX:    immediate post dominator      @  PC=0x5d8 (_2.ptx:264) @!%p4 bra BB0_32;
GPGPU-Sim PTX: 20 (potential) branch divergence @  PC=0x598 (_2.ptx:252) bra.uni BB0_20;
GPGPU-Sim PTX:    immediate post dominator      @  PC=0x5a0 (_2.ptx:255) add.s32 %r168, %r273, 1;
GPGPU-Sim PTX: 21 (potential) branch divergence @  PC=0x5d8 (_2.ptx:264) @!%p4 bra BB0_32;
GPGPU-Sim PTX:    immediate post dominator      @  PC=0x820 (_2.ptx:359) bar.sync 0;
GPGPU-Sim PTX: 22 (potential) branch divergence @  PC=0x5e0 (_2.ptx:265) bra.uni BB0_22;
GPGPU-Sim PTX:    immediate post dominator      @  PC=0x5e8 (_2.ptx:268) add.s32 %r183, %r13, -1;
GPGPU-Sim PTX: 23 (potential) branch divergence @  PC=0x5f8 (_2.ptx:270) @%p27 bra BB0_24;
GPGPU-Sim PTX:    immediate post dominator      @  PC=0x678 (_2.ptx:292) setp.eq.s32%p28, %r15, 0;
GPGPU-Sim PTX: 24 (potential) branch divergence @  PC=0x600 (_2.ptx:271) bra.uni BB0_23;
GPGPU-Sim PTX:    immediate post dominator      @  PC=0x648 (_2.ptx:284) shl.b32 %r186, %r11, 1;
GPGPU-Sim PTX: 25 (potential) branch divergence @  PC=0x640 (_2.ptx:281) bra.uni BB0_25;
GPGPU-Sim PTX:    immediate post dominator      @  PC=0x678 (_2.ptx:292) setp.eq.s32%p28, %r15, 0;
GPGPU-Sim PTX: 26 (potential) branch divergence @  PC=0x680 (_2.ptx:293) @%p28 bra BB0_27;
GPGPU-Sim PTX:    immediate post dominator      @  PC=0x700 (_2.ptx:315) shl.b32 %r228, %r11, 1;
GPGPU-Sim PTX: 27 (potential) branch divergence @  PC=0x688 (_2.ptx:294) bra.uni BB0_26;
GPGPU-Sim PTX:    immediate post dominator      @  PC=0x6d0 (_2.ptx:307) shl.b32 %r207, %r11, 1;
GPGPU-Sim PTX: 28 (potential) branch divergence @  PC=0x6c8 (_2.ptx:304) bra.uni BB0_28;
GPGPU-Sim PTX:    immediate post dominator      @  PC=0x700 (_2.ptx:315) shl.b32 %r228, %r11, 1;
GPGPU-Sim PTX: 29 (potential) branch divergence @  PC=0x718 (_2.ptx:318) @%p29 bra BB0_30;
GPGPU-Sim PTX:    immediate post dominator      @  PC=0x788 (_2.ptx:338) mad.lo.s32 %r253, %r273, %r7, %r3;
GPGPU-Sim PTX: 30 (potential) branch divergence @  PC=0x720 (_2.ptx:319) bra.uni BB0_29;
GPGPU-Sim PTX:    immediate post dominator      @  PC=0x768 (_2.ptx:332) mad.lo.s32 %r235, %r228, %r15, %r19;
GPGPU-Sim PTX: 31 (potential) branch divergence @  PC=0x760 (_2.ptx:329) bra.uni BB0_31;
GPGPU-Sim PTX:    immediate post dominator      @  PC=0x788 (_2.ptx:338) mad.lo.s32 %r253, %r273, %r7, %r3;
GPGPU-Sim PTX: 32 (potential) branch divergence @  PC=0x860 (_2.ptx:367) @%p30 bra BB0_6;
GPGPU-Sim PTX:    immediate post dominator      @  PC=0x868 (_2.ptx:370) ret;
GPGPU-Sim PTX: ... end of reconvergence points for _Z24block2D_hybrid_coarsen_xffPfS_iii
GPGPU-Sim PTX: ... done pre-decoding instructions for '_Z24block2D_hybrid_coarsen_xffPfS_iii'.
GPGPU-Sim PTX: finished parsing EMBEDDED .ptx file _2.ptx
Adding _cuobjdump_1.ptx with cubin handle 2
GPGPU-Sim PTX: extracting embedded .ptx to temporary file "_ptx_VQLU5l"
Running: cat _ptx_VQLU5l | sed 's/.version 1.5/.version 1.4/' | sed 's/, texmode_independent//' | sed 's/\(\.extern \.const\[1\] .b8 \w\+\)\[\]/\1\[1\]/' | sed 's/const\[.\]/const\[0\]/g' > _ptx2_iUC9Vg
GPGPU-Sim PTX: generating ptxinfo using "$CUDA_INSTALL_PATH/bin/ptxas --gpu-name=sm_20 -v _ptx2_iUC9Vg --output-file  /dev/null 2> _ptx_VQLU5linfo"
GPGPU-Sim PTX: Kernel '_Z24block2D_hybrid_coarsen_xffPfS_iii' : regs=20, lmem=0, smem=0, cmem=68
GPGPU-Sim PTX: removing ptxinfo using "rm -f _ptx_VQLU5l _ptx2_iUC9Vg _ptx_VQLU5linfo"
GPGPU-Sim PTX: loading globals with explicit initializers... 
GPGPU-Sim PTX: finished loading globals (0 bytes total).
GPGPU-Sim PTX: loading constants with explicit initializers...  done.
CUDA accelerated 7 points stencil codes****
Original version by Li-Wen Chang <lchang20@illinois.edu> and I-Jui Sung<sung10@illinois.edu>
This version maintained by Chris Rodrigues  ***********

GPGPU-Sim PTX: cudaLaunch for 0x0x401496 (mode=performance simulation) on stream 0
GPGPU-Sim PTX: pushing kernel '_Z24block2D_hybrid_coarsen_xffPfS_iii' to stream 0, gridDim= (2,32,1) blockDim = (32,4,1) 
GPGPU-Sim uArch: Shader 1 bind to kernel 1 '_Z24block2D_hybrid_coarsen_xffPfS_iii'
GPGPU-Sim uArch: CTA/core = 16, limited by: threads
GPGPU-Sim uArch: Shader 2 bind to kernel 1 '_Z24block2D_hybrid_coarsen_xffPfS_iii'
GPGPU-Sim uArch: Shader 3 bind to kernel 1 '_Z24block2D_hybrid_coarsen_xffPfS_iii'
GPGPU-Sim uArch: Shader 4 bind to kernel 1 '_Z24block2D_hybrid_coarsen_xffPfS_iii'
GPGPU-Sim uArch: Shader 5 bind to kernel 1 '_Z24block2D_hybrid_coarsen_xffPfS_iii'
GPGPU-Sim uArch: Shader 6 bind to kernel 1 '_Z24block2D_hybrid_coarsen_xffPfS_iii'
GPGPU-Sim uArch: Shader 7 bind to kernel 1 '_Z24block2D_hybrid_coarsen_xffPfS_iii'
GPGPU-Sim uArch: Shader 8 bind to kernel 1 '_Z24block2D_hybrid_coarsen_xffPfS_iii'
GPGPU-Sim uArch: Shader 9 bind to kernel 1 '_Z24block2D_hybrid_coarsen_xffPfS_iii'
GPGPU-Sim uArch: Shader 10 bind to kernel 1 '_Z24block2D_hybrid_coarsen_xffPfS_iii'
GPGPU-Sim uArch: Shader 11 bind to kernel 1 '_Z24block2D_hybrid_coarsen_xffPfS_iii'
GPGPU-Sim uArch: Shader 12 bind to kernel 1 '_Z24block2D_hybrid_coarsen_xffPfS_iii'
GPGPU-Sim uArch: Shader 13 bind to kernel 1 '_Z24block2D_hybrid_coarsen_xffPfS_iii'
GPGPU-Sim uArch: Shader 14 bind to kernel 1 '_Z24block2D_hybrid_coarsen_xffPfS_iii'
GPGPU-Sim uArch: Shader 15 bind to kernel 1 '_Z24block2D_hybrid_coarsen_xffPfS_iii'
GPGPU-Sim uArch: Shader 16 bind to kernel 1 '_Z24block2D_hybrid_coarsen_xffPfS_iii'
GPGPU-Sim uArch: Shader 17 bind to kernel 1 '_Z24block2D_hybrid_coarsen_xffPfS_iii'
GPGPU-Sim uArch: Shader 18 bind to kernel 1 '_Z24block2D_hybrid_coarsen_xffPfS_iii'
GPGPU-Sim uArch: Shader 19 bind to kernel 1 '_Z24block2D_hybrid_coarsen_xffPfS_iii'
GPGPU-Sim uArch: Shader 20 bind to kernel 1 '_Z24block2D_hybrid_coarsen_xffPfS_iii'
GPGPU-Sim uArch: Shader 21 bind to kernel 1 '_Z24block2D_hybrid_coarsen_xffPfS_iii'
GPGPU-Sim uArch: Shader 22 bind to kernel 1 '_Z24block2D_hybrid_coarsen_xffPfS_iii'
GPGPU-Sim uArch: Shader 23 bind to kernel 1 '_Z24block2D_hybrid_coarsen_xffPfS_iii'
GPGPU-Sim uArch: Shader 24 bind to kernel 1 '_Z24block2D_hybrid_coarsen_xffPfS_iii'
GPGPU-Sim uArch: Shader 25 bind to kernel 1 '_Z24block2D_hybrid_coarsen_xffPfS_iii'
GPGPU-Sim uArch: Shader 26 bind to kernel 1 '_Z24block2D_hybrid_coarsen_xffPfS_iii'
GPGPU-Sim uArch: Shader 27 bind to kernel 1 '_Z24block2D_hybrid_coarsen_xffPfS_iii'
GPGPU-Sim uArch: Shader 0 bind to kernel 1 '_Z24block2D_hybrid_coarsen_xffPfS_iii'
Destroy streams for kernel 1: size 0
kernel_name = _Z24block2D_hybrid_coarsen_xffPfS_iii 
kernel_launch_uid = 1 
gpu_sim_cycle = 569074
gpu_sim_insn = 28848876
gpu_ipc =      50.6944
gpu_tot_sim_cycle = 791224
gpu_tot_sim_insn = 28848876
gpu_tot_ipc =      36.4611
gpu_tot_issued_cta = 64
max_total_param_size = 0
gpu_stall_dramfull = 92613
gpu_stall_icnt2sh    = 2168
partiton_reqs_in_parallel = 12427015
partiton_reqs_in_parallel_total    = 0
partiton_level_parallism =      21.8373
partiton_level_parallism_total  =      15.7061
partiton_reqs_in_parallel_util = 12427015
partiton_reqs_in_parallel_util_total    = 0
gpu_sim_cycle_parition_util = 568118
gpu_tot_sim_cycle_parition_util    = 0
partiton_level_parallism_util =      21.8740
partiton_level_parallism_util_total  =      21.8740
partiton_replys_in_parallel = 47008
partiton_replys_in_parallel_total    = 0
L2_BW  =       7.8296 GB/Sec
L2_BW_total  =       5.6313 GB/Sec
gpu_total_sim_rate=20075

========= Core cache stats =========
L1I_cache:
	L1I_total_cache_accesses = 579228
	L1I_total_cache_misses = 3000
	L1I_total_cache_miss_rate = 0.0052
	L1I_total_cache_pending_hits = 0
	L1I_total_cache_reservation_fails = 0
L1D_cache:
	L1D_cache_core[0]: Access = 0, Miss = 0, Miss_rate = -nan, Pending_hits = 0, Reservation_fails = 0
	L1D_cache_core[1]: Access = 0, Miss = 0, Miss_rate = -nan, Pending_hits = 0, Reservation_fails = 0
	L1D_cache_core[2]: Access = 0, Miss = 0, Miss_rate = -nan, Pending_hits = 0, Reservation_fails = 0
	L1D_cache_core[3]: Access = 0, Miss = 0, Miss_rate = -nan, Pending_hits = 0, Reservation_fails = 0
	L1D_cache_core[4]: Access = 0, Miss = 0, Miss_rate = -nan, Pending_hits = 0, Reservation_fails = 0
	L1D_cache_core[5]: Access = 0, Miss = 0, Miss_rate = -nan, Pending_hits = 0, Reservation_fails = 0
	L1D_cache_core[6]: Access = 0, Miss = 0, Miss_rate = -nan, Pending_hits = 0, Reservation_fails = 0
	L1D_cache_core[7]: Access = 0, Miss = 0, Miss_rate = -nan, Pending_hits = 0, Reservation_fails = 0
	L1D_cache_core[8]: Access = 0, Miss = 0, Miss_rate = -nan, Pending_hits = 0, Reservation_fails = 0
	L1D_cache_core[9]: Access = 0, Miss = 0, Miss_rate = -nan, Pending_hits = 0, Reservation_fails = 0
	L1D_cache_core[10]: Access = 0, Miss = 0, Miss_rate = -nan, Pending_hits = 0, Reservation_fails = 0
	L1D_cache_core[11]: Access = 0, Miss = 0, Miss_rate = -nan, Pending_hits = 0, Reservation_fails = 0
	L1D_cache_core[12]: Access = 0, Miss = 0, Miss_rate = -nan, Pending_hits = 0, Reservation_fails = 0
	L1D_cache_core[13]: Access = 0, Miss = 0, Miss_rate = -nan, Pending_hits = 0, Reservation_fails = 0
	L1D_cache_core[14]: Access = 0, Miss = 0, Miss_rate = -nan, Pending_hits = 0, Reservation_fails = 0
	L1D_cache_core[15]: Access = 0, Miss = 0, Miss_rate = -nan, Pending_hits = 0, Reservation_fails = 0
	L1D_cache_core[16]: Access = 0, Miss = 0, Miss_rate = -nan, Pending_hits = 0, Reservation_fails = 0
	L1D_cache_core[17]: Access = 0, Miss = 0, Miss_rate = -nan, Pending_hits = 0, Reservation_fails = 0
	L1D_cache_core[18]: Access = 0, Miss = 0, Miss_rate = -nan, Pending_hits = 0, Reservation_fails = 0
	L1D_cache_core[19]: Access = 0, Miss = 0, Miss_rate = -nan, Pending_hits = 0, Reservation_fails = 0
	L1D_cache_core[20]: Access = 0, Miss = 0, Miss_rate = -nan, Pending_hits = 0, Reservation_fails = 0
	L1D_cache_core[21]: Access = 0, Miss = 0, Miss_rate = -nan, Pending_hits = 0, Reservation_fails = 0
	L1D_cache_core[22]: Access = 0, Miss = 0, Miss_rate = -nan, Pending_hits = 0, Reservation_fails = 0
	L1D_cache_core[23]: Access = 0, Miss = 0, Miss_rate = -nan, Pending_hits = 0, Reservation_fails = 0
	L1D_cache_core[24]: Access = 0, Miss = 0, Miss_rate = -nan, Pending_hits = 0, Reservation_fails = 0
	L1D_cache_core[25]: Access = 0, Miss = 0, Miss_rate = -nan, Pending_hits = 0, Reservation_fails = 0
	L1D_cache_core[26]: Access = 0, Miss = 0, Miss_rate = -nan, Pending_hits = 0, Reservation_fails = 0
	L1D_cache_core[27]: Access = 0, Miss = 0, Miss_rate = -nan, Pending_hits = 0, Reservation_fails = 0
	L1D_total_cache_accesses = 0
	L1D_total_cache_misses = 0
	L1D_total_cache_pending_hits = 0
	L1D_total_cache_reservation_fails = 0
	L1D_cache_data_port_util = 0.000
	L1D_cache_fill_port_util = 0.000
L1C_cache:
	L1C_total_cache_accesses = 1792
	L1C_total_cache_misses = 1632
	L1C_total_cache_miss_rate = 0.9107
	L1C_total_cache_pending_hits = 0
	L1C_total_cache_reservation_fails = 1444
L1T_cache:
	L1T_total_cache_accesses = 0
	L1T_total_cache_misses = 0
	L1T_total_cache_pending_hits = 0
	L1T_total_cache_reservation_fails = 0

Total_core_cache_stats:
	Total_core_cache_stats_breakdown[GLOBAL_ACC_R][HIT] = 0
	Total_core_cache_stats_breakdown[GLOBAL_ACC_R][HIT_RESERVED] = 0
	Total_core_cache_stats_breakdown[GLOBAL_ACC_R][MISS] = 0
	Total_core_cache_stats_breakdown[GLOBAL_ACC_R][RESERVATION_FAIL] = 0
	Total_core_cache_stats_breakdown[LOCAL_ACC_R][HIT] = 0
	Total_core_cache_stats_breakdown[LOCAL_ACC_R][HIT_RESERVED] = 0
	Total_core_cache_stats_breakdown[LOCAL_ACC_R][MISS] = 0
	Total_core_cache_stats_breakdown[LOCAL_ACC_R][RESERVATION_FAIL] = 0
	Total_core_cache_stats_breakdown[CONST_ACC_R][HIT] = 160
	Total_core_cache_stats_breakdown[CONST_ACC_R][HIT_RESERVED] = 0
	Total_core_cache_stats_breakdown[CONST_ACC_R][MISS] = 1632
	Total_core_cache_stats_breakdown[CONST_ACC_R][RESERVATION_FAIL] = 1444
	Total_core_cache_stats_breakdown[TEXTURE_ACC_R][HIT] = 0
	Total_core_cache_stats_breakdown[TEXTURE_ACC_R][HIT_RESERVED] = 0
	Total_core_cache_stats_breakdown[TEXTURE_ACC_R][MISS] = 0
	Total_core_cache_stats_breakdown[TEXTURE_ACC_R][RESERVATION_FAIL] = 0
	Total_core_cache_stats_breakdown[GLOBAL_ACC_W][HIT] = 0
	Total_core_cache_stats_breakdown[GLOBAL_ACC_W][HIT_RESERVED] = 0
	Total_core_cache_stats_breakdown[GLOBAL_ACC_W][MISS] = 0
	Total_core_cache_stats_breakdown[GLOBAL_ACC_W][RESERVATION_FAIL] = 0
	Total_core_cache_stats_breakdown[LOCAL_ACC_W][HIT] = 0
	Total_core_cache_stats_breakdown[LOCAL_ACC_W][HIT_RESERVED] = 0
	Total_core_cache_stats_breakdown[LOCAL_ACC_W][MISS] = 0
	Total_core_cache_stats_breakdown[LOCAL_ACC_W][RESERVATION_FAIL] = 0
	Total_core_cache_stats_breakdown[L1_WRBK_ACC][HIT] = 0
	Total_core_cache_stats_breakdown[L1_WRBK_ACC][HIT_RESERVED] = 0
	Total_core_cache_stats_breakdown[L1_WRBK_ACC][MISS] = 0
	Total_core_cache_stats_breakdown[L1_WRBK_ACC][RESERVATION_FAIL] = 0
	Total_core_cache_stats_breakdown[L2_WRBK_ACC][HIT] = 0
	Total_core_cache_stats_breakdown[L2_WRBK_ACC][HIT_RESERVED] = 0
	Total_core_cache_stats_breakdown[L2_WRBK_ACC][MISS] = 0
	Total_core_cache_stats_breakdown[L2_WRBK_ACC][RESERVATION_FAIL] = 0
	Total_core_cache_stats_breakdown[INST_ACC_R][HIT] = 576228
	Total_core_cache_stats_breakdown[INST_ACC_R][HIT_RESERVED] = 0
	Total_core_cache_stats_breakdown[INST_ACC_R][MISS] = 3000
	Total_core_cache_stats_breakdown[INST_ACC_R][RESERVATION_FAIL] = 0
	Total_core_cache_stats_breakdown[L1_WR_ALLOC_R][HIT] = 0
	Total_core_cache_stats_breakdown[L1_WR_ALLOC_R][HIT_RESERVED] = 0
	Total_core_cache_stats_breakdown[L1_WR_ALLOC_R][MISS] = 0
	Total_core_cache_stats_breakdown[L1_WR_ALLOC_R][RESERVATION_FAIL] = 0
	Total_core_cache_stats_breakdown[L2_WR_ALLOC_R][HIT] = 0
	Total_core_cache_stats_breakdown[L2_WR_ALLOC_R][HIT_RESERVED] = 0
	Total_core_cache_stats_breakdown[L2_WR_ALLOC_R][MISS] = 0
	Total_core_cache_stats_breakdown[L2_WR_ALLOC_R][RESERVATION_FAIL] = 0
	Total_core_cache_stats_breakdown[CONST_ACC_R][TOTAL_ACCESS] = 1792
	Total_core_cache_stats_breakdown[INST_ACC_R][TOTAL_ACCESS] = 579228
Shader 0 warp_id issue ditsribution:
warp_id:
0, 1, 2, 3, 4, 5, 6, 7, 
distro:
4828, 4640, 4648, 4821, 4828, 4643, 4648, 4818, 
gpgpu_n_tot_thrd_icount = 33319424
gpgpu_n_tot_w_icount = 1041232
gpgpu_n_stall_shd_mem = 194089
gpgpu_n_mem_read_local = 0
gpgpu_n_mem_write_local = 0
gpgpu_n_mem_read_global = 31384
gpgpu_n_mem_write_global = 15120
gpgpu_n_mem_texture = 0
gpgpu_n_mem_const = 28
gpgpu_n_load_insn  = 766208
gpgpu_n_store_insn = 476280
gpgpu_n_shmem_insn = 3155288
gpgpu_n_tex_insn = 0
gpgpu_n_const_mem_insn = 0
gpgpu_n_param_mem_insn = 57344
gpgpu_n_shmem_bkconflict = 0
gpgpu_n_cache_bkconflict = 0
gpgpu_n_intrawarp_mshr_merge = 0
gpgpu_n_cmem_portconflict = 1444
gpgpu_stall_shd_mem[c_mem][bk_conf] = 1444
gpgpu_stall_shd_mem[c_mem][mshr_rc] = 0
gpgpu_stall_shd_mem[c_mem][icnt_rc] = 0
gpgpu_stall_shd_mem[c_mem][data_port_stall] = 0
gpgpu_stall_shd_mem[t_mem][mshr_rc] = 0
gpgpu_stall_shd_mem[t_mem][icnt_rc] = 0
gpgpu_stall_shd_mem[t_mem][data_port_stall] = 0
gpgpu_stall_shd_mem[s_mem][bk_conf] = 0
gpgpu_stall_shd_mem[gl_mem][bk_conf] = 0
gpgpu_stall_shd_mem[gl_mem][coal_stall] = 0
gpgpu_stall_shd_mem[gl_mem][data_port_stall] = 0
gpgpu_stall_shd_mem[g_mem_ld][mshr_rc] = 0
gpgpu_stall_shd_mem[g_mem_ld][icnt_rc] = 192645
gpgpu_stall_shd_mem[g_mem_ld][wb_icnt_rc] = 0
gpgpu_stall_shd_mem[g_mem_ld][wb_rsrv_fail] = 0
gpgpu_stall_shd_mem[g_mem_st][mshr_rc] = 0
gpgpu_stall_shd_mem[g_mem_st][icnt_rc] = 0
gpgpu_stall_shd_mem[g_mem_st][wb_icnt_rc] = 0
gpgpu_stall_shd_mem[g_mem_st][wb_rsrv_fail] = 0
gpgpu_stall_shd_mem[l_mem_ld][mshr_rc] = 0
gpgpu_stall_shd_mem[l_mem_ld][icnt_rc] = 0
gpgpu_stall_shd_mem[l_mem_ld][wb_icnt_rc] = 0
gpgpu_stall_shd_mem[l_mem_ld][wb_rsrv_fail] = 0
gpgpu_stall_shd_mem[l_mem_st][mshr_rc] = 0
gpgpu_stall_shd_mem[l_mem_st][icnt_rc] = 0
gpgpu_stall_shd_mem[l_mem_ld][wb_icnt_rc] = 0
gpgpu_stall_shd_mem[l_mem_ld][wb_rsrv_fail] = 0
gpu_reg_bank_conflict_stalls = 0
Warp Occupancy Distribution:
Stall:31270	W0_Idle:8524537	W0_Scoreboard:22402283	W1:60480	W2:0	W3:0	W4:0	W5:0	W6:0	W7:0	W8:0	W9:0	W10:0	W11:0	W12:0	W13:0	W14:0	W15:0	W16:0	W17:0	W18:0	W19:0	W20:0	W21:0	W22:0	W23:0	W24:0	W25:0	W26:0	W27:0	W28:0	W29:0	W30:0	W31:408180	W32:572572
traffic_breakdown_coretomem[CONST_ACC_R] = 224 {8:28,}
traffic_breakdown_coretomem[GLOBAL_ACC_R] = 251072 {8:31384,}
traffic_breakdown_coretomem[GLOBAL_ACC_W] = 2056320 {136:15120,}
traffic_breakdown_coretomem[INST_ACC_R] = 3808 {8:476,}
traffic_breakdown_memtocore[CONST_ACC_R] = 2016 {72:28,}
traffic_breakdown_memtocore[GLOBAL_ACC_R] = 3542464 {40:7560,136:23824,}
traffic_breakdown_memtocore[GLOBAL_ACC_W] = 120960 {8:15120,}
traffic_breakdown_memtocore[INST_ACC_R] = 64736 {136:476,}
maxmrqlatency = 1916 
maxdqlatency = 0 
maxmflatency = 179194 
averagemflatency = 34363 
max_icnt2mem_latency = 178940 
max_icnt2sh_latency = 791223 
mrq_lat_table:14501 	1220 	742 	1293 	1664 	2347 	3604 	6574 	11123 	3520 	54 	0 	0 	0 	0 	0 	0 	0 	0 	0 	0 	0 	0 	0 	0 	0 	0 	0 	0 	0 	0 	0 	
dq_lat_table:0 	0 	0 	0 	0 	0 	0 	0 	0 	0 	0 	0 	0 	0 	0 	0 	0 	0 	0 	0 	0 	0 	0 	0 	0 	0 	0 	0 	0 	0 	0 	0 	
mf_lat_table:0 	0 	0 	0 	0 	0 	0 	22039 	8481 	250 	0 	58 	146 	826 	1386 	5310 	262 	7774 	0 	0 	0 	0 	0 	0 	0 	0 	0 	0 	0 	0 	0 	0 	
icnt2mem_lat_table:0 	0 	22134 	129 	19 	0 	8964 	0 	0 	0 	1 	57 	146 	826 	1386 	5310 	262 	7774 	0 	0 	0 	0 	0 	0 	
icnt2sh_lat_table:0 	0 	25449 	5840 	123 	0 	0 	0 	0 	0 	0 	0 	0 	0 	0 	0 	0 	0 	7084 	8036 	0 	0 	0 	0 	
mf_lat_pw_table:0 	0 	0 	0 	0 	0 	0 	86 	9 	0 	0 	2 	3 	6 	9 	14 	1 	15 	0 	0 	0 	0 	0 	0 	0 	0 	0 	0 	0 	0 	0 	0 	
maximum concurrent accesses to same row:
dram[0]:        32        32        32        32        32        32        32        32        32        32        32        32        32        32        32        32 
dram[1]:        32        32        32        32        32        32        32        32        32        32        32        32        32        32        32        32 
dram[2]:        32        32        32        32        32        32        32        32        32        32        32        32        32        32        32        32 
dram[3]:        32        32        32        32        32        32        32        32        32        32        32        32        32        32        32        32 
dram[4]:        32        32        32        32        32        32        32        32        32        32        32        32        32        32        32        32 
dram[5]:        32        32        32        32        32        32        32        32        32        32        32        32        32        32        32        32 
dram[6]:        32        32        32        32        32        32        32        32        32        32        32        32        32        32        32        32 
dram[7]:        32        32        32        32        32        32        32        32        32        32        32        32        32        32        32        32 
dram[8]:        32        32        32        32        32        32        32        32        32        32        32        32        32        32        32        32 
dram[9]:        32        32        32        32        32        32        32        32        32        32        32        32        32        32        32        32 
dram[10]:        32        32        32        32        32        32        32        32        32        32        32        32        32        32        32        32 
maximum service time to same row:
dram[0]:    148733    148298    146080    145492    152310    151733    151443    150875    150529    150081    150469    149971    149498    149052    148814    148390 
dram[1]:    148697    148279    146134    145570    152333    151739    151419    150932    150660    150125    150447    149894    149460    148958    148823    148302 
dram[2]:    148700    148138    146099    145517    152304    151721    151436    150888    150570    150077    150425    150010    149557    149575    148709    148305 
dram[3]:    148719    148227    146140    145548    152328    151752    151425    150926    150671    150119    150430    149907    149558    148962    148862    148361 
dram[4]:    148717    148251    146099    145519    152328    152278    151487    150943    150589    150096    150396    149890    149564    149079    148787    148307 
dram[5]:    148740    148725    146084    145521    152310    151740    151404    150834    150671    150125    150480    149957    149502    148990    148975    148450 
dram[6]:    148555    148084    146097    145514    152307    151744    151296    150770    150638    150175    150450    149955    149593    149153    148724    148368 
dram[7]:    148725    148299    146088    145511    152317    151758    151424    151099    150548    150086    150554    150075    149563    149084    148879    148397 
dram[8]:    148582    148032    146138    145576    152308    151725    151175    150710    150611    150078    150408    149857    149639    149107    148848    148392 
dram[9]:    148695    148294    146088    145504    152329    151761    151445    150966    150619    150124    150573    150002    149586    149118    148974    148463 
dram[10]:    148048    147474    146136    145574    152319    151750    151247    150725    150673    150140    150438    150444    149605    149020    148895    148352 
average row accesses per activate:
dram[0]: 23.363636 23.272728 20.500000 20.500000 21.818182 21.818182 22.750000 22.750000 20.142857 20.142857 22.153847 22.153847 19.857143 17.375000 21.416666 21.416666 
dram[1]: 23.272728 23.272728 20.500000 20.500000 21.272728 21.272728 23.250000 23.250000 23.500000 23.500000 22.153847 22.153847 18.533333 18.533333 21.416666 23.272728 
dram[2]: 22.909090 22.909090 21.000000 21.000000 21.272728 21.272728 23.250000 23.250000 20.142857 20.142857 22.153847 22.153847 19.857143 19.857143 23.272728 23.272728 
dram[3]: 22.909090 22.909090 21.000000 21.000000 21.272728 21.272728 23.250000 23.250000 23.500000 20.142857 22.153847 22.153847 17.250000 17.250000 23.272728 23.272728 
dram[4]: 22.909090 22.909090 21.000000 21.000000 21.272728 21.272728 22.750000 22.750000 24.000000 24.000000 22.153847 20.571428 17.250000 19.714285 21.416666 21.416666 
dram[5]: 22.909090 22.909090 20.666666 20.666666 21.818182 21.818182 22.750000 22.750000 24.000000 24.000000 22.153847 22.153847 17.250000 17.250000 21.416666 21.416666 
dram[6]: 23.272728 23.272728 20.666666 20.666666 21.818182 21.818182 22.750000 22.750000 24.000000 24.000000 22.153847 22.153847 18.400000 18.400000 20.916666 20.916666 
dram[7]: 23.272728 23.272728 20.583334 20.583334 21.818182 21.818182 22.750000 22.750000 22.153847 22.153847 21.692308 21.692308 17.625000 17.625000 20.916666 20.916666 
dram[8]: 23.272728 23.272728 20.583334 20.583334 21.818182 21.818182 22.916666 22.916666 24.000000 22.153847 21.692308 21.692308 20.142857 20.142857 20.916666 20.916666 
dram[9]: 22.727272 22.727272 20.916666 20.916666 21.818182 21.818182 22.916666 22.916666 22.153847 24.000000 21.692308 20.142857 20.142857 20.142857 20.916666 20.916666 
dram[10]: 22.727272 22.727272 20.916666 20.916666 21.818182 21.818182 23.000000 23.000000 24.000000 24.000000 21.692308 21.692308 18.400000 18.400000 21.416666 21.416666 
average row locality = 46642/2167 = 21.523766
number of total memory accesses made:
dram[0]:         0         0         0         0         0         0         0         0         0         0         0         0         0         0         0         0 
dram[1]:         0         0         0         0         0         0         0         0         0         0         0         0         0         0         0         0 
dram[2]:         0         0         0         0         0         0         0         0         0         0         0         0         0         0         0         0 
dram[3]:         0         0         0         0         0         0         0         0         0         0         0         0         0         0         0         0 
dram[4]:         0         0         0         0         0         0         0         0         0         0         0         0         0         0         0         0 
dram[5]:         0         0         0         0         0         0         0         0         0         0         0         0         0         0         0         0 
dram[6]:         0         0         0         0         0         0         0         0         0         0         0         0         0         0         0         0 
dram[7]:         0         0         0         0         0         0         0         0         0         0         0         0         0         0         0         0 
dram[8]:         0         0         0         0         0         0         0         0         0         0         0         0         0         0         0         0 
dram[9]:         0         0         0         0         0         0         0         0         0         0         0         0         0         0         0         0 
dram[10]:         0         0         0         0         0         0         0         0         0         0         0         0         0         0         0         0 
total accesses: 0
min_bank_accesses = 0!
min_chip_accesses = 0!
number of total read accesses:
dram[0]:       177       176       169       169       160       160       183       183       189       189       192       192       187       187       177       177 
dram[1]:       176       176       169       169       157       157       186       186       189       189       192       192       187       187       177       176 
dram[2]:       174       174       172       172       157       157       186       186       189       189       192       192       187       187       176       176 
dram[3]:       174       174       172       172       157       157       186       186       189       189       192       192       186       186       176       176 
dram[4]:       174       174       172       172       157       157       183       183       192       192       192       192       186       186       177       177 
dram[5]:       174       174       170       170       160       160       183       183       192       192       192       192       186       186       177       177 
dram[6]:       176       176       170       170       160       160       183       183       192       192       192       192       186       186       174       174 
dram[7]:       176       176       169       169       160       160       183       183       192       192       189       189       189       189       174       174 
dram[8]:       176       176       169       169       160       160       184       184       192       192       189       189       189       189       174       174 
dram[9]:       173       173       171       171       160       160       184       184       192       192       189       189       189       189       174       174 
dram[10]:       173       173       171       171       160       160       185       185       192       192       189       189       186       186       177       177 
total reads: 31522
bank skew: 192/157 = 1.22
chip skew: 2868/2864 = 1.00
number of total write accesses:
dram[0]:        80        80        77        77        80        80        90        90        93        93        96        96        91        91        80        80 
dram[1]:        80        80        77        77        77        77        93        93        93        93        96        96        91        91        80        80 
dram[2]:        78        78        80        80        77        77        93        93        93        93        96        96        91        91        80        80 
dram[3]:        78        78        80        80        77        77        93        93        93        93        96        96        90        90        80        80 
dram[4]:        78        78        80        80        77        77        90        90        96        96        96        96        90        90        80        80 
dram[5]:        78        78        78        78        80        80        90        90        96        96        96        96        90        90        80        80 
dram[6]:        80        80        78        78        80        80        90        90        96        96        96        96        90        90        77        77 
dram[7]:        80        80        78        78        80        80        90        90        96        96        93        93        93        93        77        77 
dram[8]:        80        80        78        78        80        80        91        91        96        96        93        93        93        93        77        77 
dram[9]:        77        77        80        80        80        80        91        91        96        96        93        93        93        93        77        77 
dram[10]:        77        77        80        80        80        80        91        91        96        96        93        93        90        90        80        80 
total reads: 15120
bank skew: 96/77 = 1.25
chip skew: 1376/1374 = 1.00
average mf latency per bank:
dram[0]:      29257     26780     39391     36186     46509     39028     44296     33620     30798     29968     33402     32201     34412     32616     35262     27402
dram[1]:      29347     26778     39370     36168     46085     38656     44261     33770     30825     29986     33376     32168     34630     32832     35256     27486
dram[2]:      28929     26774     39312     36060     46091     38659     44224     33737     30835     29973     33401     32190     34596     32812     35502     27598
dram[3]:      28921     26751     39303     36077     46243     38818     44260     33773     30843     29976     33568     32364     34834     32840     35517     27603
dram[4]:      28733     26565     39312     36076     46256     38806     43871     33803     31009     30161     33610     32369     34913     32809     35377     27495
dram[5]:      28703     26537     39919     36410     46659     39014     43872     33799     31036     30167     33621     32367     34877     32857     35392     27508
dram[6]:      29169     26804     39885     36392     46640     39019     43673     33623     31017     30177     33612     32389     35242     32843     35293     27302
dram[7]:      29137     26767     39949     36544     46665     39056     43650     33602     31001     30151     33215     31959     35398     33040     35230     27297
dram[8]:      29164     26796     39952     36528     47486     38986     43711     33299     31005     30156     33188     31940     35192     33039     35223     27288
dram[9]:      28761     26578     40202     36843     47527     39026     43653     33223     31016     30159     33227     31972     35196     33038     35228     27291
dram[10]:      28770     26577     40192     36826     46985     38984     43537     33121     31021     30171     33190     31927     34534     32324     35103     27292
maximum mf latency per bank:
dram[0]:     160546    160118    163264    162872    179182    162813    179148    162203    162007    161761    162123    161676    160899    160577    160492    160251
dram[1]:     160724    160546    163259    162883    179164    162955    179151    162151    161781    161484    161857    161496    161420    161185    160541    160133
dram[2]:     160631    160145    163284    162914    179194    162700    179151    162135    161955    161667    162188    161946    161003    160628    160371    160085
dram[3]:     160319    159706    163245    162861    179161    163006    179151    162093    161959    161566    161822    161349    161666    161107    160439    160010
dram[4]:     160599    160120    163279    162887    179184    162586    179145    177624    162007    161638    162095    161715    160980    160530    160357    160082
dram[5]:     160303    159699    163275    162949    179157    162929    179152    178523    161973    161625    161691    161318    161471    161086    160598    160287
dram[6]:     160594    160368    163329    162959    179182    162588    178953    162341    161955    161658    162085    161724    160927    160865    160401    160148
dram[7]:     160256    160012    163246    162855    179150    162926    179162    162002    161807    161542    162125    161717    161381    161091    160420    160077
dram[8]:     160994    160564    163391    162994    179157    162643    178953    162390    161843    161348    161919    161260    161138    160712    160663    160340
dram[9]:     160221    160103    163322    162892    179153    162998    179147    162212    162006    161750    162230    161769    161407    161064    160747    160255
dram[10]:     160948    160457    163350    162987    179163    162420    178955    162280    161947    161517    161972    161371    161428    160923    160722    160226
Memory Partition 0: 
Cache L2_bank_000:
MSHR contents

Cache L2_bank_001:
MSHR contents
MSHR: tag=0x80783d80, atomic=0 1 entries : 0x7f3963dd2790 :  mf: uid=644028, sid04:w02, part=0, addr=0x80783d80, load , size=128, unknown  status = IN_PARTITION_DRAM (791223), 

In Dram Latency Queue (total = 0): 
DRAM[0]: 16 bks, busW=4 BL=8 CL=12, tRRD=2 tCCD=6, tRCD=12 tRAS=28 tRP=12 tRC=40
n_cmd=1056686 n_nop=1039336 n_act=201 n_pre=185 n_req=4241 n_rd=11468 n_write=5496 bw_util=0.03211
n_activity=48687 dram_eff=0.6969
bk0: 708a 1042788i bk1: 704a 1042645i bk2: 676a 1042163i bk3: 676a 1042348i bk4: 640a 1040853i bk5: 640a 1041180i bk6: 732a 1040978i bk7: 732a 1040535i bk8: 756a 1041536i bk9: 756a 1041257i bk10: 768a 1040770i bk11: 768a 1041108i bk12: 748a 1040841i bk13: 748a 1040938i bk14: 708a 1042941i bk15: 708a 1042608i 
dram_util_bins: 0 0 0 0 0 0 0 0 0 0
dram_eff_bins: 0 0 0 0 0 0 0 0 0 0
mrqq: max=64 avg=1.28992
Memory Partition 1: 
Cache L2_bank_002:
MSHR contents

Cache L2_bank_003:
MSHR contents

In Dram Latency Queue (total = 0): 
DRAM[1]: 16 bks, busW=4 BL=8 CL=12, tRRD=2 tCCD=6, tRCD=12 tRAS=28 tRP=12 tRC=40
n_cmd=1056686 n_nop=1039356 n_act=195 n_pre=179 n_req=4239 n_rd=11460 n_write=5496 bw_util=0.03209
n_activity=48695 dram_eff=0.6964
bk0: 704a 1043041i bk1: 704a 1042872i bk2: 676a 1042025i bk3: 676a 1041989i bk4: 628a 1042190i bk5: 628a 1042149i bk6: 744a 1040497i bk7: 744a 1040559i bk8: 756a 1040974i bk9: 756a 1040903i bk10: 768a 1040906i bk11: 768a 1040966i bk12: 748a 1041079i bk13: 748a 1041128i bk14: 708a 1043134i bk15: 704a 1043214i 
dram_util_bins: 0 0 0 0 0 0 0 0 0 0
dram_eff_bins: 0 0 0 0 0 0 0 0 0 0
mrqq: max=64 avg=1.29522
Memory Partition 2: 
Cache L2_bank_004:
MSHR contents

Cache L2_bank_005:
MSHR contents

In Dram Latency Queue (total = 0): 
DRAM[2]: 16 bks, busW=4 BL=8 CL=12, tRRD=2 tCCD=6, tRCD=12 tRAS=28 tRP=12 tRC=40
n_cmd=1056686 n_nop=1039342 n_act=196 n_pre=180 n_req=4242 n_rd=11464 n_write=5504 bw_util=0.03212
n_activity=48732 dram_eff=0.6964
bk0: 696a 1043164i bk1: 696a 1042817i bk2: 688a 1041054i bk3: 688a 1041353i bk4: 628a 1041481i bk5: 628a 1041375i bk6: 744a 1040840i bk7: 744a 1040901i bk8: 756a 1041362i bk9: 756a 1041033i bk10: 768a 1040631i bk11: 768a 1040584i bk12: 748a 1040801i bk13: 748a 1041124i bk14: 704a 1043017i bk15: 704a 1042689i 
dram_util_bins: 0 0 0 0 0 0 0 0 0 0
dram_eff_bins: 0 0 0 0 0 0 0 0 0 0
mrqq: max=64 avg=1.29536
Memory Partition 3: 
Cache L2_bank_006:
MSHR contents

Cache L2_bank_007:
MSHR contents

In Dram Latency Queue (total = 0): 
DRAM[3]: 16 bks, busW=4 BL=8 CL=12, tRRD=2 tCCD=6, tRCD=12 tRAS=28 tRP=12 tRC=40
n_cmd=1056686 n_nop=1039354 n_act=198 n_pre=182 n_req=4238 n_rd=11456 n_write=5496 bw_util=0.03209
n_activity=48660 dram_eff=0.6968
bk0: 696a 1042951i bk1: 696a 1043164i bk2: 688a 1041587i bk3: 688a 1041331i bk4: 628a 1041359i bk5: 628a 1041349i bk6: 744a 1040715i bk7: 744a 1040489i bk8: 756a 1041188i bk9: 756a 1040916i bk10: 768a 1040858i bk11: 768a 1040603i bk12: 744a 1041103i bk13: 744a 1041122i bk14: 704a 1042845i bk15: 704a 1042906i 
dram_util_bins: 0 0 0 0 0 0 0 0 0 0
dram_eff_bins: 0 0 0 0 0 0 0 0 0 0
mrqq: max=64 avg=1.2995
Memory Partition 4: 
Cache L2_bank_008:
MSHR contents

Cache L2_bank_009:
MSHR contents

In Dram Latency Queue (total = 0): 
DRAM[4]: 16 bks, busW=4 BL=8 CL=12, tRRD=2 tCCD=6, tRCD=12 tRAS=28 tRP=12 tRC=40
n_cmd=1056686 n_nop=1039348 n_act=197 n_pre=181 n_req=4240 n_rd=11464 n_write=5496 bw_util=0.0321
n_activity=48418 dram_eff=0.7006
bk0: 696a 1043457i bk1: 696a 1043117i bk2: 688a 1041542i bk3: 688a 1041382i bk4: 628a 1041365i bk5: 628a 1041596i bk6: 732a 1041030i bk7: 732a 1040721i bk8: 768a 1040899i bk9: 768a 1040945i bk10: 768a 1041073i bk11: 768a 1041046i bk12: 744a 1041301i bk13: 744a 1041500i bk14: 708a 1042837i bk15: 708a 1042970i 
dram_util_bins: 0 0 0 0 0 0 0 0 0 0
dram_eff_bins: 0 0 0 0 0 0 0 0 0 0
mrqq: max=64 avg=1.2938
Memory Partition 5: 
Cache L2_bank_010:
MSHR contents

Cache L2_bank_011:
MSHR contents

In Dram Latency Queue (total = 0): 
DRAM[5]: 16 bks, busW=4 BL=8 CL=12, tRRD=2 tCCD=6, tRCD=12 tRAS=28 tRP=12 tRC=40
n_cmd=1056686 n_nop=1039330 n_act=198 n_pre=182 n_req=4244 n_rd=11472 n_write=5504 bw_util=0.03213
n_activity=48812 dram_eff=0.6956
bk0: 696a 1043403i bk1: 696a 1042934i bk2: 680a 1042215i bk3: 680a 1041776i bk4: 640a 1040918i bk5: 640a 1041320i bk6: 732a 1040961i bk7: 732a 1040658i bk8: 768a 1040664i bk9: 768a 1040478i bk10: 768a 1040515i bk11: 768a 1040570i bk12: 744a 1041118i bk13: 744a 1040836i bk14: 708a 1042796i bk15: 708a 1042767i 
dram_util_bins: 0 0 0 0 0 0 0 0 0 0
dram_eff_bins: 0 0 0 0 0 0 0 0 0 0
mrqq: max=64 avg=1.29714
Memory Partition 6: 
Cache L2_bank_012:
MSHR contents

Cache L2_bank_013:
MSHR contents
MSHR: tag=0x80782280, atomic=0 1 entries : 0x7f3963773c30 :  mf: uid=644081, sid05:w09, part=6, addr=0x80782280, load , size=128, unknown  status = IN_PARTITION_DRAM (791223), 

In Dram Latency Queue (total = 0): 
DRAM[6]: 16 bks, busW=4 BL=8 CL=12, tRRD=2 tCCD=6, tRCD=12 tRAS=28 tRP=12 tRC=40
n_cmd=1056686 n_nop=1039351 n_act=196 n_pre=180 n_req=4240 n_rd=11463 n_write=5496 bw_util=0.0321
n_activity=48570 dram_eff=0.6983
bk0: 704a 1043127i bk1: 704a 1042917i bk2: 680a 1042783i bk3: 680a 1041722i bk4: 640a 1041925i bk5: 640a 1041695i bk6: 732a 1040942i bk7: 732a 1041310i bk8: 768a 1040617i bk9: 768a 1040595i bk10: 768a 1040792i bk11: 767a 1040691i bk12: 744a 1041334i bk13: 744a 1041396i bk14: 696a 1043724i bk15: 696a 1043624i 
dram_util_bins: 0 0 0 0 0 0 0 0 0 0
dram_eff_bins: 0 0 0 0 0 0 0 0 0 0
mrqq: max=64 avg=1.29861
Memory Partition 7: 
Cache L2_bank_014:
MSHR contents

Cache L2_bank_015:
MSHR contents

In Dram Latency Queue (total = 0): 
DRAM[7]: 16 bks, busW=4 BL=8 CL=12, tRRD=2 tCCD=6, tRCD=12 tRAS=28 tRP=12 tRC=40
n_cmd=1056686 n_nop=1039350 n_act=200 n_pre=184 n_req=4238 n_rd=11456 n_write=5496 bw_util=0.03209
n_activity=48804 dram_eff=0.6947
bk0: 704a 1042837i bk1: 704a 1043032i bk2: 676a 1042429i bk3: 676a 1042348i bk4: 640a 1041230i bk5: 640a 1041469i bk6: 732a 1040878i bk7: 732a 1040745i bk8: 768a 1040882i bk9: 768a 1040716i bk10: 756a 1040771i bk11: 756a 1041143i bk12: 756a 1040834i bk13: 756a 1040756i bk14: 696a 1043642i bk15: 696a 1043580i 
dram_util_bins: 0 0 0 0 0 0 0 0 0 0
dram_eff_bins: 0 0 0 0 0 0 0 0 0 0
mrqq: max=64 avg=1.29464
Memory Partition 8: 
Cache L2_bank_016:
MSHR contents

Cache L2_bank_017:
MSHR contents

In Dram Latency Queue (total = 0): 
DRAM[8]: 16 bks, busW=4 BL=8 CL=12, tRRD=2 tCCD=6, tRCD=12 tRAS=28 tRP=12 tRC=40
n_cmd=1056686 n_nop=1039344 n_act=195 n_pre=179 n_req=4242 n_rd=11464 n_write=5504 bw_util=0.03212
n_activity=48521 dram_eff=0.6994
bk0: 704a 1042737i bk1: 704a 1042766i bk2: 676a 1041781i bk3: 676a 1041550i bk4: 640a 1041005i bk5: 640a 1041506i bk6: 736a 1040923i bk7: 736a 1040768i bk8: 768a 1040663i bk9: 768a 1040882i bk10: 756a 1040685i bk11: 756a 1041112i bk12: 756a 1040453i bk13: 756a 1040801i bk14: 696a 1043382i bk15: 696a 1043164i 
dram_util_bins: 0 0 0 0 0 0 0 0 0 0
dram_eff_bins: 0 0 0 0 0 0 0 0 0 0
mrqq: max=64 avg=1.29702
Memory Partition 9: 
Cache L2_bank_018:
MSHR contents

Cache L2_bank_019:
MSHR contents
MSHR: tag=0x80792280, atomic=0 1 entries : 0x7f39623322d0 :  mf: uid=644084, sid05:w09, part=9, addr=0x80792280, load , size=128, unknown  status = IN_PARTITION_DRAM (791217), 

In Dram Latency Queue (total = 0): 
DRAM[9]: 16 bks, busW=4 BL=8 CL=12, tRRD=2 tCCD=6, tRCD=12 tRAS=28 tRP=12 tRC=40
n_cmd=1056686 n_nop=1039358 n_act=196 n_pre=180 n_req=4238 n_rd=11456 n_write=5496 bw_util=0.03209
n_activity=48425 dram_eff=0.7001
bk0: 692a 1043569i bk1: 692a 1043483i bk2: 684a 1042113i bk3: 684a 1042096i bk4: 640a 1041089i bk5: 640a 1041406i bk6: 736a 1041247i bk7: 736a 1041271i bk8: 768a 1040992i bk9: 768a 1041298i bk10: 756a 1041099i bk11: 756a 1041476i bk12: 756a 1040347i bk13: 756a 1040599i bk14: 696a 1043312i bk15: 696a 1043152i 
dram_util_bins: 0 0 0 0 0 0 0 0 0 0
dram_eff_bins: 0 0 0 0 0 0 0 0 0 0
mrqq: max=64 avg=1.29673
Memory Partition 10: 
Cache L2_bank_020:
MSHR contents

Cache L2_bank_021:
MSHR contents

In Dram Latency Queue (total = 0): 
DRAM[10]: 16 bks, busW=4 BL=8 CL=12, tRRD=2 tCCD=6, tRCD=12 tRAS=28 tRP=12 tRC=40
n_cmd=1056686 n_nop=1039350 n_act=196 n_pre=180 n_req=4240 n_rd=11464 n_write=5496 bw_util=0.0321
n_activity=48845 dram_eff=0.6944
bk0: 692a 1043352i bk1: 692a 1043357i bk2: 684a 1041566i bk3: 684a 1041522i bk4: 640a 1041526i bk5: 640a 1041479i bk6: 740a 1040784i bk7: 740a 1041095i bk8: 768a 1040622i bk9: 768a 1041014i bk10: 756a 1040885i bk11: 756a 1041448i bk12: 744a 1041000i bk13: 744a 1041154i bk14: 708a 1043057i bk15: 708a 1043297i 
dram_util_bins: 0 0 0 0 0 0 0 0 0 0
dram_eff_bins: 0 0 0 0 0 0 0 0 0 0
mrqq: max=64 avg=1.2918

========= L2 cache stats =========
L2_cache_bank[0]: Access = 2171, Miss = 1434, Miss_rate = 0.661, Pending_hits = 34, Reservation_fails = 0
L2_cache_bank[1]: Access = 2143, Miss = 1433, Miss_rate = 0.669, Pending_hits = 111, Reservation_fails = 0
L2_cache_bank[2]: Access = 2141, Miss = 1433, Miss_rate = 0.669, Pending_hits = 1, Reservation_fails = 0
L2_cache_bank[3]: Access = 2112, Miss = 1432, Miss_rate = 0.678, Pending_hits = 101, Reservation_fails = 0
L2_cache_bank[4]: Access = 2114, Miss = 1433, Miss_rate = 0.678, Pending_hits = 0, Reservation_fails = 0
L2_cache_bank[5]: Access = 2115, Miss = 1433, Miss_rate = 0.678, Pending_hits = 108, Reservation_fails = 0
L2_cache_bank[6]: Access = 2114, Miss = 1432, Miss_rate = 0.677, Pending_hits = 0, Reservation_fails = 0
L2_cache_bank[7]: Access = 2113, Miss = 1432, Miss_rate = 0.678, Pending_hits = 102, Reservation_fails = 0
L2_cache_bank[8]: Access = 2140, Miss = 1433, Miss_rate = 0.670, Pending_hits = 29, Reservation_fails = 0
L2_cache_bank[9]: Access = 2141, Miss = 1433, Miss_rate = 0.669, Pending_hits = 135, Reservation_fails = 0
L2_cache_bank[10]: Access = 2144, Miss = 1434, Miss_rate = 0.669, Pending_hits = 30, Reservation_fails = 0
L2_cache_bank[11]: Access = 2144, Miss = 1434, Miss_rate = 0.669, Pending_hits = 128, Reservation_fails = 0
L2_cache_bank[12]: Access = 2142, Miss = 1433, Miss_rate = 0.669, Pending_hits = 29, Reservation_fails = 0
L2_cache_bank[13]: Access = 2141, Miss = 1433, Miss_rate = 0.669, Pending_hits = 133, Reservation_fails = 0
L2_cache_bank[14]: Access = 2140, Miss = 1432, Miss_rate = 0.669, Pending_hits = 28, Reservation_fails = 0
L2_cache_bank[15]: Access = 2141, Miss = 1432, Miss_rate = 0.669, Pending_hits = 133, Reservation_fails = 1
L2_cache_bank[16]: Access = 2144, Miss = 1433, Miss_rate = 0.668, Pending_hits = 28, Reservation_fails = 0
L2_cache_bank[17]: Access = 2144, Miss = 1433, Miss_rate = 0.668, Pending_hits = 134, Reservation_fails = 0
L2_cache_bank[18]: Access = 2141, Miss = 1432, Miss_rate = 0.669, Pending_hits = 8, Reservation_fails = 0
L2_cache_bank[19]: Access = 2140, Miss = 1432, Miss_rate = 0.669, Pending_hits = 106, Reservation_fails = 0
L2_cache_bank[20]: Access = 2141, Miss = 1433, Miss_rate = 0.669, Pending_hits = 3, Reservation_fails = 0
L2_cache_bank[21]: Access = 2142, Miss = 1433, Miss_rate = 0.669, Pending_hits = 113, Reservation_fails = 0
L2_total_cache_accesses = 47008
L2_total_cache_misses = 31522
L2_total_cache_miss_rate = 0.6706
L2_total_cache_pending_hits = 1494
L2_total_cache_reservation_fails = 1
L2_total_cache_breakdown:
	L2_cache_stats_breakdown[GLOBAL_ACC_R][HIT] = 13832
	L2_cache_stats_breakdown[GLOBAL_ACC_R][HIT_RESERVED] = 1168
	L2_cache_stats_breakdown[GLOBAL_ACC_R][MISS] = 16384
	L2_cache_stats_breakdown[GLOBAL_ACC_R][RESERVATION_FAIL] = 0
	L2_cache_stats_breakdown[LOCAL_ACC_R][HIT] = 0
	L2_cache_stats_breakdown[LOCAL_ACC_R][HIT_RESERVED] = 0
	L2_cache_stats_breakdown[LOCAL_ACC_R][MISS] = 0
	L2_cache_stats_breakdown[LOCAL_ACC_R][RESERVATION_FAIL] = 0
	L2_cache_stats_breakdown[CONST_ACC_R][HIT] = 0
	L2_cache_stats_breakdown[CONST_ACC_R][HIT_RESERVED] = 27
	L2_cache_stats_breakdown[CONST_ACC_R][MISS] = 1
	L2_cache_stats_breakdown[CONST_ACC_R][RESERVATION_FAIL] = 0
	L2_cache_stats_breakdown[TEXTURE_ACC_R][HIT] = 0
	L2_cache_stats_breakdown[TEXTURE_ACC_R][HIT_RESERVED] = 0
	L2_cache_stats_breakdown[TEXTURE_ACC_R][MISS] = 0
	L2_cache_stats_breakdown[TEXTURE_ACC_R][RESERVATION_FAIL] = 0
	L2_cache_stats_breakdown[GLOBAL_ACC_W][HIT] = 0
	L2_cache_stats_breakdown[GLOBAL_ACC_W][HIT_RESERVED] = 0
	L2_cache_stats_breakdown[GLOBAL_ACC_W][MISS] = 15120
	L2_cache_stats_breakdown[GLOBAL_ACC_W][RESERVATION_FAIL] = 1
	L2_cache_stats_breakdown[LOCAL_ACC_W][HIT] = 0
	L2_cache_stats_breakdown[LOCAL_ACC_W][HIT_RESERVED] = 0
	L2_cache_stats_breakdown[LOCAL_ACC_W][MISS] = 0
	L2_cache_stats_breakdown[LOCAL_ACC_W][RESERVATION_FAIL] = 0
	L2_cache_stats_breakdown[L1_WRBK_ACC][HIT] = 0
	L2_cache_stats_breakdown[L1_WRBK_ACC][HIT_RESERVED] = 0
	L2_cache_stats_breakdown[L1_WRBK_ACC][MISS] = 0
	L2_cache_stats_breakdown[L1_WRBK_ACC][RESERVATION_FAIL] = 0
	L2_cache_stats_breakdown[L2_WRBK_ACC][HIT] = 0
	L2_cache_stats_breakdown[L2_WRBK_ACC][HIT_RESERVED] = 0
	L2_cache_stats_breakdown[L2_WRBK_ACC][MISS] = 0
	L2_cache_stats_breakdown[L2_WRBK_ACC][RESERVATION_FAIL] = 0
	L2_cache_stats_breakdown[INST_ACC_R][HIT] = 160
	L2_cache_stats_breakdown[INST_ACC_R][HIT_RESERVED] = 299
	L2_cache_stats_breakdown[INST_ACC_R][MISS] = 17
	L2_cache_stats_breakdown[INST_ACC_R][RESERVATION_FAIL] = 0
	L2_cache_stats_breakdown[L1_WR_ALLOC_R][HIT] = 0
	L2_cache_stats_breakdown[L1_WR_ALLOC_R][HIT_RESERVED] = 0
	L2_cache_stats_breakdown[L1_WR_ALLOC_R][MISS] = 0
	L2_cache_stats_breakdown[L1_WR_ALLOC_R][RESERVATION_FAIL] = 0
	L2_cache_stats_breakdown[L2_WR_ALLOC_R][HIT] = 0
	L2_cache_stats_breakdown[L2_WR_ALLOC_R][HIT_RESERVED] = 0
	L2_cache_stats_breakdown[L2_WR_ALLOC_R][MISS] = 0
	L2_cache_stats_breakdown[L2_WR_ALLOC_R][RESERVATION_FAIL] = 0
	L2_cache_stats_breakdown[GLOBAL_ACC_R][TOTAL_ACCESS] = 31384
	L2_cache_stats_breakdown[CONST_ACC_R][TOTAL_ACCESS] = 28
	L2_cache_stats_breakdown[GLOBAL_ACC_W][TOTAL_ACCESS] = 15120
	L2_cache_stats_breakdown[INST_ACC_R][TOTAL_ACCESS] = 476
L2_cache_data_port_util = 0.003
L2_cache_fill_port_util = 0.010

icnt_total_pkts_mem_to_simt=151824
icnt_total_pkts_simt_to_mem=107488
LD_mem_lat_dist  0 0 0 0 0 0 0 0 0 0 0 0 0 0 0 0 0 0 0 0 0 0 0 0 0 0 0
ST_mem_lat_dist  0 0 0 0 0 0 0 0 0 0 0 0 0 0 0 0 0 0 0 0 0 0 0 0 0 0 0
----------------------------Interconnect-DETAILS--------------------------------
Class 0:
Packet latency average = 22.6315
	minimum = 6
	maximum = 1541
Network latency average = 18.3165
	minimum = 6
	maximum = 1366
Slowest packet = 41119
Flit latency average = 21.2719
	minimum = 6
	maximum = 1362
Slowest flit = 116162
Fragmentation average = 1.04458
	minimum = 0
	maximum = 1289
Injected packet rate average = 0.00165209
	minimum = 0.00130915 (at node 0)
	maximum = 0.00195581 (at node 3)
Accepted packet rate average = 0.00165209
	minimum = 0.00130915 (at node 0)
	maximum = 0.00195581 (at node 3)
Injected flit rate average = 0.00455674
	minimum = 0.0029961 (at node 0)
	maximum = 0.00616705 (at node 28)
Accepted flit rate average= 0.00455674
	minimum = 0.00422441 (at node 0)
	maximum = 0.00629796 (at node 3)
Injected packet length average = 2.75817
Accepted packet length average = 2.75817
Total in-flight flits = 0 (0 measured)
====== Overall Traffic Statistics ======
====== Traffic class 0 ======
Packet latency average = 22.6315 (1 samples)
	minimum = 6 (1 samples)
	maximum = 1541 (1 samples)
Network latency average = 18.3165 (1 samples)
	minimum = 6 (1 samples)
	maximum = 1366 (1 samples)
Flit latency average = 21.2719 (1 samples)
	minimum = 6 (1 samples)
	maximum = 1362 (1 samples)
Fragmentation average = 1.04458 (1 samples)
	minimum = 0 (1 samples)
	maximum = 1289 (1 samples)
Injected packet rate average = 0.00165209 (1 samples)
	minimum = 0.00130915 (1 samples)
	maximum = 0.00195581 (1 samples)
Accepted packet rate average = 0.00165209 (1 samples)
	minimum = 0.00130915 (1 samples)
	maximum = 0.00195581 (1 samples)
Injected flit rate average = 0.00455674 (1 samples)
	minimum = 0.0029961 (1 samples)
	maximum = 0.00616705 (1 samples)
Accepted flit rate average = 0.00455674 (1 samples)
	minimum = 0.00422441 (1 samples)
	maximum = 0.00629796 (1 samples)
Injected packet size average = 2.75817 (1 samples)
Accepted packet size average = 2.75817 (1 samples)
Hops average = 1 (1 samples)
----------------------------END-of-Interconnect-DETAILS-------------------------


gpgpu_simulation_time = 0 days, 0 hrs, 23 min, 57 sec (1437 sec)
gpgpu_simulation_rate = 20075 (inst/sec)
gpgpu_simulation_rate = 550 (cycle/sec)

GPGPU-Sim PTX: cudaLaunch for 0x0x401496 (mode=performance simulation) on stream 0
GPGPU-Sim PTX: pushing kernel '_Z24block2D_hybrid_coarsen_xffPfS_iii' to stream 0, gridDim= (2,32,1) blockDim = (32,4,1) 
GPGPU-Sim uArch: Shader 9 bind to kernel 2 '_Z24block2D_hybrid_coarsen_xffPfS_iii'
GPGPU-Sim uArch: Shader 10 bind to kernel 2 '_Z24block2D_hybrid_coarsen_xffPfS_iii'
GPGPU-Sim uArch: Shader 11 bind to kernel 2 '_Z24block2D_hybrid_coarsen_xffPfS_iii'
GPGPU-Sim uArch: Shader 12 bind to kernel 2 '_Z24block2D_hybrid_coarsen_xffPfS_iii'
GPGPU-Sim uArch: Shader 13 bind to kernel 2 '_Z24block2D_hybrid_coarsen_xffPfS_iii'
GPGPU-Sim uArch: Shader 14 bind to kernel 2 '_Z24block2D_hybrid_coarsen_xffPfS_iii'
GPGPU-Sim uArch: Shader 15 bind to kernel 2 '_Z24block2D_hybrid_coarsen_xffPfS_iii'
GPGPU-Sim uArch: Shader 16 bind to kernel 2 '_Z24block2D_hybrid_coarsen_xffPfS_iii'
GPGPU-Sim uArch: Shader 17 bind to kernel 2 '_Z24block2D_hybrid_coarsen_xffPfS_iii'
GPGPU-Sim uArch: Shader 18 bind to kernel 2 '_Z24block2D_hybrid_coarsen_xffPfS_iii'
GPGPU-Sim uArch: Shader 19 bind to kernel 2 '_Z24block2D_hybrid_coarsen_xffPfS_iii'
GPGPU-Sim uArch: Shader 20 bind to kernel 2 '_Z24block2D_hybrid_coarsen_xffPfS_iii'
GPGPU-Sim uArch: Shader 21 bind to kernel 2 '_Z24block2D_hybrid_coarsen_xffPfS_iii'
GPGPU-Sim uArch: Shader 22 bind to kernel 2 '_Z24block2D_hybrid_coarsen_xffPfS_iii'
GPGPU-Sim uArch: Shader 23 bind to kernel 2 '_Z24block2D_hybrid_coarsen_xffPfS_iii'
GPGPU-Sim uArch: Shader 24 bind to kernel 2 '_Z24block2D_hybrid_coarsen_xffPfS_iii'
GPGPU-Sim uArch: Shader 25 bind to kernel 2 '_Z24block2D_hybrid_coarsen_xffPfS_iii'
GPGPU-Sim uArch: Shader 26 bind to kernel 2 '_Z24block2D_hybrid_coarsen_xffPfS_iii'
GPGPU-Sim uArch: Shader 27 bind to kernel 2 '_Z24block2D_hybrid_coarsen_xffPfS_iii'
GPGPU-Sim uArch: Shader 0 bind to kernel 2 '_Z24block2D_hybrid_coarsen_xffPfS_iii'
GPGPU-Sim uArch: Shader 1 bind to kernel 2 '_Z24block2D_hybrid_coarsen_xffPfS_iii'
GPGPU-Sim uArch: Shader 2 bind to kernel 2 '_Z24block2D_hybrid_coarsen_xffPfS_iii'
GPGPU-Sim uArch: Shader 3 bind to kernel 2 '_Z24block2D_hybrid_coarsen_xffPfS_iii'
GPGPU-Sim uArch: Shader 4 bind to kernel 2 '_Z24block2D_hybrid_coarsen_xffPfS_iii'
GPGPU-Sim uArch: Shader 5 bind to kernel 2 '_Z24block2D_hybrid_coarsen_xffPfS_iii'
GPGPU-Sim uArch: Shader 6 bind to kernel 2 '_Z24block2D_hybrid_coarsen_xffPfS_iii'
GPGPU-Sim uArch: Shader 7 bind to kernel 2 '_Z24block2D_hybrid_coarsen_xffPfS_iii'
GPGPU-Sim uArch: Shader 8 bind to kernel 2 '_Z24block2D_hybrid_coarsen_xffPfS_iii'
Destroy streams for kernel 2: size 0
kernel_name = _Z24block2D_hybrid_coarsen_xffPfS_iii 
kernel_launch_uid = 2 
gpu_sim_cycle = 714509
gpu_sim_insn = 28848876
gpu_ipc =      40.3758
gpu_tot_sim_cycle = 1727883
gpu_tot_sim_insn = 57697752
gpu_tot_ipc =      33.3922
gpu_tot_issued_cta = 128
max_total_param_size = 0
gpu_stall_dramfull = 92613
gpu_stall_icnt2sh    = 2202
partiton_reqs_in_parallel = 15719198
partiton_reqs_in_parallel_total    = 12427015
partiton_level_parallism =      22.0000
partiton_level_parallism_total  =      16.2894
partiton_reqs_in_parallel_util = 15719198
partiton_reqs_in_parallel_util_total    = 12427015
gpu_sim_cycle_parition_util = 714509
gpu_tot_sim_cycle_parition_util    = 568118
partiton_level_parallism_util =      22.0000
partiton_level_parallism_util_total  =      21.9442
partiton_replys_in_parallel = 46504
partiton_replys_in_parallel_total    = 47008
L2_BW  =       6.1690 GB/Sec
L2_BW_total  =       5.1297 GB/Sec
gpu_total_sim_rate=20942

========= Core cache stats =========
L1I_cache:
	L1I_total_cache_accesses = 1158456
	L1I_total_cache_misses = 3000
	L1I_total_cache_miss_rate = 0.0026
	L1I_total_cache_pending_hits = 0
	L1I_total_cache_reservation_fails = 0
L1D_cache:
	L1D_cache_core[0]: Access = 0, Miss = 0, Miss_rate = -nan, Pending_hits = 0, Reservation_fails = 0
	L1D_cache_core[1]: Access = 0, Miss = 0, Miss_rate = -nan, Pending_hits = 0, Reservation_fails = 0
	L1D_cache_core[2]: Access = 0, Miss = 0, Miss_rate = -nan, Pending_hits = 0, Reservation_fails = 0
	L1D_cache_core[3]: Access = 0, Miss = 0, Miss_rate = -nan, Pending_hits = 0, Reservation_fails = 0
	L1D_cache_core[4]: Access = 0, Miss = 0, Miss_rate = -nan, Pending_hits = 0, Reservation_fails = 0
	L1D_cache_core[5]: Access = 0, Miss = 0, Miss_rate = -nan, Pending_hits = 0, Reservation_fails = 0
	L1D_cache_core[6]: Access = 0, Miss = 0, Miss_rate = -nan, Pending_hits = 0, Reservation_fails = 0
	L1D_cache_core[7]: Access = 0, Miss = 0, Miss_rate = -nan, Pending_hits = 0, Reservation_fails = 0
	L1D_cache_core[8]: Access = 0, Miss = 0, Miss_rate = -nan, Pending_hits = 0, Reservation_fails = 0
	L1D_cache_core[9]: Access = 0, Miss = 0, Miss_rate = -nan, Pending_hits = 0, Reservation_fails = 0
	L1D_cache_core[10]: Access = 0, Miss = 0, Miss_rate = -nan, Pending_hits = 0, Reservation_fails = 0
	L1D_cache_core[11]: Access = 0, Miss = 0, Miss_rate = -nan, Pending_hits = 0, Reservation_fails = 0
	L1D_cache_core[12]: Access = 0, Miss = 0, Miss_rate = -nan, Pending_hits = 0, Reservation_fails = 0
	L1D_cache_core[13]: Access = 0, Miss = 0, Miss_rate = -nan, Pending_hits = 0, Reservation_fails = 0
	L1D_cache_core[14]: Access = 0, Miss = 0, Miss_rate = -nan, Pending_hits = 0, Reservation_fails = 0
	L1D_cache_core[15]: Access = 0, Miss = 0, Miss_rate = -nan, Pending_hits = 0, Reservation_fails = 0
	L1D_cache_core[16]: Access = 0, Miss = 0, Miss_rate = -nan, Pending_hits = 0, Reservation_fails = 0
	L1D_cache_core[17]: Access = 0, Miss = 0, Miss_rate = -nan, Pending_hits = 0, Reservation_fails = 0
	L1D_cache_core[18]: Access = 0, Miss = 0, Miss_rate = -nan, Pending_hits = 0, Reservation_fails = 0
	L1D_cache_core[19]: Access = 0, Miss = 0, Miss_rate = -nan, Pending_hits = 0, Reservation_fails = 0
	L1D_cache_core[20]: Access = 0, Miss = 0, Miss_rate = -nan, Pending_hits = 0, Reservation_fails = 0
	L1D_cache_core[21]: Access = 0, Miss = 0, Miss_rate = -nan, Pending_hits = 0, Reservation_fails = 0
	L1D_cache_core[22]: Access = 0, Miss = 0, Miss_rate = -nan, Pending_hits = 0, Reservation_fails = 0
	L1D_cache_core[23]: Access = 0, Miss = 0, Miss_rate = -nan, Pending_hits = 0, Reservation_fails = 0
	L1D_cache_core[24]: Access = 0, Miss = 0, Miss_rate = -nan, Pending_hits = 0, Reservation_fails = 0
	L1D_cache_core[25]: Access = 0, Miss = 0, Miss_rate = -nan, Pending_hits = 0, Reservation_fails = 0
	L1D_cache_core[26]: Access = 0, Miss = 0, Miss_rate = -nan, Pending_hits = 0, Reservation_fails = 0
	L1D_cache_core[27]: Access = 0, Miss = 0, Miss_rate = -nan, Pending_hits = 0, Reservation_fails = 0
[...]
F: 38515429----T: 38518034 	 St: 8071f000 Sz: 4096 	 Sm: 0 	 T: memcpy_h2d(1.758947)
F: 38518034----T: 38520639 	 St: 80494000 Sz: 4096 	 Sm: 0 	 T: memcpy_h2d(1.758947)
F: 38520639----T: 38523244 	 St: 804ee000 Sz: 4096 	 Sm: 0 	 T: memcpy_h2d(1.758947)
F: 38523244----T: 38525849 	 St: 804fe000 Sz: 4096 	 Sm: 0 	 T: memcpy_h2d(1.758947)
F: 38525849----T: 38528454 	 St: 80483000 Sz: 4096 	 Sm: 0 	 T: memcpy_h2d(1.758947)
F: 38528454----T: 38531059 	 St: 8071e000 Sz: 4096 	 Sm: 0 	 T: memcpy_h2d(1.758947)
F: 38531059----T: 38533664 	 St: 80493000 Sz: 4096 	 Sm: 0 	 T: memcpy_h2d(1.758947)
F: 38533664----T: 38536269 	 St: 804ed000 Sz: 4096 	 Sm: 0 	 T: memcpy_h2d(1.758947)
F: 38536269----T: 38538874 	 St: 804fd000 Sz: 4096 	 Sm: 0 	 T: memcpy_h2d(1.758947)
F: 38538874----T: 38541479 	 St: 80492000 Sz: 4096 	 Sm: 0 	 T: memcpy_h2d(1.758947)
F: 38541479----T: 38544084 	 St: 8071d000 Sz: 4096 	 Sm: 0 	 T: memcpy_h2d(1.758947)
F: 38544084----T: 38546689 	 St: 804a2000 Sz: 4096 	 Sm: 0 	 T: memcpy_h2d(1.758947)
F: 38546689----T: 38549294 	 St: 804e4000 Sz: 4096 	 Sm: 0 	 T: memcpy_h2d(1.758947)
F: 38549294----T: 38551899 	 St: 804f4000 Sz: 4096 	 Sm: 0 	 T: memcpy_h2d(1.758947)
F: 38551899----T: 38554504 	 St: 80714000 Sz: 4096 	 Sm: 0 	 T: memcpy_h2d(1.758947)
F: 38554504----T: 38557109 	 St: 804e3000 Sz: 4096 	 Sm: 0 	 T: memcpy_h2d(1.758947)
F: 38557109----T: 38559714 	 St: 804f3000 Sz: 4096 	 Sm: 0 	 T: memcpy_h2d(1.758947)
F: 38559714----T: 38562319 	 St: 80713000 Sz: 4096 	 Sm: 0 	 T: memcpy_h2d(1.758947)
F: 38562319----T: 38564924 	 St: 806f1000 Sz: 4096 	 Sm: 0 	 T: memcpy_h2d(1.758947)
F: 38564924----T: 38567529 	 St: 80702000 Sz: 4096 	 Sm: 0 	 T: memcpy_h2d(1.758947)
F: 38567529----T: 38570134 	 St: 806e2000 Sz: 4096 	 Sm: 0 	 T: memcpy_h2d(1.758947)
F: 38570134----T: 38572739 	 St: 80704000 Sz: 4096 	 Sm: 0 	 T: memcpy_h2d(1.758947)
F: 38572739----T: 38575344 	 St: 806f2000 Sz: 4096 	 Sm: 0 	 T: memcpy_h2d(1.758947)
F: 38575344----T: 38577949 	 St: 80703000 Sz: 4096 	 Sm: 0 	 T: memcpy_h2d(1.758947)
F: 38577949----T: 38580554 	 St: 80711000 Sz: 4096 	 Sm: 0 	 T: memcpy_h2d(1.758947)
F: 38580554----T: 38583159 	 St: 80701000 Sz: 4096 	 Sm: 0 	 T: memcpy_h2d(1.758947)
F: 38583159----T: 38585764 	 St: 8048a000 Sz: 4096 	 Sm: 0 	 T: memcpy_h2d(1.758947)
F: 38585764----T: 38588369 	 St: 806ab000 Sz: 4096 	 Sm: 0 	 T: memcpy_h2d(1.758947)
F: 38588369----T: 38590974 	 St: 806a9000 Sz: 4096 	 Sm: 0 	 T: memcpy_h2d(1.758947)
F: 38590974----T: 38593579 	 St: 806aa000 Sz: 4096 	 Sm: 0 	 T: memcpy_h2d(1.758947)
F: 38593579----T: 38596184 	 St: 80507000 Sz: 4096 	 Sm: 0 	 T: memcpy_h2d(1.758947)
F: 38596184----T: 38598789 	 St: 80708000 Sz: 4096 	 Sm: 0 	 T: memcpy_h2d(1.758947)
F: 38598789----T: 38601394 	 St: 80707000 Sz: 4096 	 Sm: 0 	 T: memcpy_h2d(1.758947)
F: 38601394----T: 38603999 	 St: 80706000 Sz: 4096 	 Sm: 0 	 T: memcpy_h2d(1.758947)
F: 38603999----T: 38606604 	 St: 80505000 Sz: 4096 	 Sm: 0 	 T: memcpy_h2d(1.758947)
F: 38606604----T: 38609209 	 St: 80705000 Sz: 4096 	 Sm: 0 	 T: memcpy_h2d(1.758947)
F: 38609209----T: 38611814 	 St: 80506000 Sz: 4096 	 Sm: 0 	 T: memcpy_h2d(1.758947)
F: 38611814----T: 38614419 	 St: 80509000 Sz: 4096 	 Sm: 0 	 T: memcpy_h2d(1.758947)
F: 38614419----T: 38617024 	 St: 80709000 Sz: 4096 	 Sm: 0 	 T: memcpy_h2d(1.758947)
F: 38617024----T: 38619629 	 St: 80508000 Sz: 4096 	 Sm: 0 	 T: memcpy_h2d(1.758947)
F: 38619629----T: 38622234 	 St: 8070c000 Sz: 4096 	 Sm: 0 	 T: memcpy_h2d(1.758947)
F: 38622234----T: 38624839 	 St: 8070d000 Sz: 4096 	 Sm: 0 	 T: memcpy_h2d(1.758947)
F: 38624839----T: 38627444 	 St: 8070b000 Sz: 4096 	 Sm: 0 	 T: memcpy_h2d(1.758947)
F: 38627444----T: 38630049 	 St: 80710000 Sz: 4096 	 Sm: 0 	 T: memcpy_h2d(1.758947)
F: 38630049----T: 38632654 	 St: 8070f000 Sz: 4096 	 Sm: 0 	 T: memcpy_h2d(1.758947)
F: 38632654----T: 38635259 	 St: 8050f000 Sz: 4096 	 Sm: 0 	 T: memcpy_h2d(1.758947)
F: 38635259----T: 38637864 	 St: 8070e000 Sz: 4096 	 Sm: 0 	 T: memcpy_h2d(1.758947)
F: 38637864----T: 38640469 	 St: 8050e000 Sz: 4096 	 Sm: 0 	 T: memcpy_h2d(1.758947)
F: 38640469----T: 38643074 	 St: 8050d000 Sz: 4096 	 Sm: 0 	 T: memcpy_h2d(1.758947)
F: 38643074----T: 38645679 	 St: 80504000 Sz: 4096 	 Sm: 0 	 T: memcpy_h2d(1.758947)
F: 38645679----T: 38648284 	 St: 80503000 Sz: 4096 	 Sm: 0 	 T: memcpy_h2d(1.758947)
F: 38648284----T: 38650889 	 St: 80712000 Sz: 4096 	 Sm: 0 	 T: memcpy_h2d(1.758947)
F: 38650889----T: 38653494 	 St: 80723000 Sz: 4096 	 Sm: 0 	 T: memcpy_h2d(1.758947)
F: 38653494----T: 38656099 	 St: 80724000 Sz: 4096 	 Sm: 0 	 T: memcpy_h2d(1.758947)
F: 38656099----T: 38658704 	 St: 806bb000 Sz: 4096 	 Sm: 0 	 T: memcpy_h2d(1.758947)
F: 38658704----T: 38661309 	 St: 806b9000 Sz: 4096 	 Sm: 0 	 T: memcpy_h2d(1.758947)
F: 38661309----T: 38663914 	 St: 8049a000 Sz: 4096 	 Sm: 0 	 T: memcpy_h2d(1.758947)
F: 38663914----T: 38666519 	 St: 806ba000 Sz: 4096 	 Sm: 0 	 T: memcpy_h2d(1.758947)
F: 38666519----T: 38669124 	 St: 80727000 Sz: 4096 	 Sm: 0 	 T: memcpy_h2d(1.758947)
F: 38669124----T: 38671729 	 St: 80728000 Sz: 4096 	 Sm: 0 	 T: memcpy_h2d(1.758947)
F: 38671729----T: 38674334 	 St: 80726000 Sz: 4096 	 Sm: 0 	 T: memcpy_h2d(1.758947)
F: 38674334----T: 38676939 	 St: 80725000 Sz: 4096 	 Sm: 0 	 T: memcpy_h2d(1.758947)
F: 38676939----T: 38679544 	 St: 80729000 Sz: 4096 	 Sm: 0 	 T: memcpy_h2d(1.758947)
F: 38679544----T: 38682149 	 St: 8072c000 Sz: 4096 	 Sm: 0 	 T: memcpy_h2d(1.758947)
F: 38682149----T: 38684754 	 St: 8072d000 Sz: 4096 	 Sm: 0 	 T: memcpy_h2d(1.758947)
F: 38684754----T: 38687359 	 St: 8072b000 Sz: 4096 	 Sm: 0 	 T: memcpy_h2d(1.758947)
F: 38687359----T: 38689964 	 St: 80730000 Sz: 4096 	 Sm: 0 	 T: memcpy_h2d(1.758947)
F: 38689964----T: 38692569 	 St: 80731000 Sz: 4096 	 Sm: 0 	 T: memcpy_h2d(1.758947)
F: 38692569----T: 38695174 	 St: 8072f000 Sz: 4096 	 Sm: 0 	 T: memcpy_h2d(1.758947)
F: 38695174----T: 38697779 	 St: 8072e000 Sz: 4096 	 Sm: 0 	 T: memcpy_h2d(1.758947)
F: 38697779----T: 38700384 	 St: 80722000 Sz: 4096 	 Sm: 0 	 T: memcpy_h2d(1.758947)
F: 38700384----T: 38702989 	 St: 80513000 Sz: 4096 	 Sm: 0 	 T: memcpy_h2d(1.758947)
F: 38702989----T: 38705594 	 St: 80733000 Sz: 4096 	 Sm: 0 	 T: memcpy_h2d(1.758947)
F: 38705594----T: 38708199 	 St: 80514000 Sz: 4096 	 Sm: 0 	 T: memcpy_h2d(1.758947)
F: 38708199----T: 38710804 	 St: 80734000 Sz: 4096 	 Sm: 0 	 T: memcpy_h2d(1.758947)
F: 38710804----T: 38713409 	 St: 806cb000 Sz: 4096 	 Sm: 0 	 T: memcpy_h2d(1.758947)
F: 38713409----T: 38716014 	 St: 806c9000 Sz: 4096 	 Sm: 0 	 T: memcpy_h2d(1.758947)
F: 38716014----T: 38718619 	 St: 806ca000 Sz: 4096 	 Sm: 0 	 T: memcpy_h2d(1.758947)
F: 38718619----T: 38721224 	 St: 80517000 Sz: 4096 	 Sm: 0 	 T: memcpy_h2d(1.758947)
F: 38721224----T: 38723829 	 St: 80737000 Sz: 4096 	 Sm: 0 	 T: memcpy_h2d(1.758947)
F: 38723829----T: 38726434 	 St: 80518000 Sz: 4096 	 Sm: 0 	 T: memcpy_h2d(1.758947)
F: 38726434----T: 38729039 	 St: 80738000 Sz: 4096 	 Sm: 0 	 T: memcpy_h2d(1.758947)
F: 38729039----T: 38731644 	 St: 80516000 Sz: 4096 	 Sm: 0 	 T: memcpy_h2d(1.758947)
F: 38731644----T: 38734249 	 St: 80736000 Sz: 4096 	 Sm: 0 	 T: memcpy_h2d(1.758947)
F: 38734249----T: 38736854 	 St: 80515000 Sz: 4096 	 Sm: 0 	 T: memcpy_h2d(1.758947)
F: 38736854----T: 38739459 	 St: 80735000 Sz: 4096 	 Sm: 0 	 T: memcpy_h2d(1.758947)
F: 38739459----T: 38742064 	 St: 80519000 Sz: 4096 	 Sm: 0 	 T: memcpy_h2d(1.758947)
F: 38742064----T: 38744669 	 St: 80739000 Sz: 4096 	 Sm: 0 	 T: memcpy_h2d(1.758947)
F: 38744669----T: 38747274 	 St: 8073c000 Sz: 4096 	 Sm: 0 	 T: memcpy_h2d(1.758947)
F: 38747274----T: 38749879 	 St: 8051d000 Sz: 4096 	 Sm: 0 	 T: memcpy_h2d(1.758947)
F: 38749879----T: 38752484 	 St: 8073d000 Sz: 4096 	 Sm: 0 	 T: memcpy_h2d(1.758947)
F: 38752484----T: 38755089 	 St: 8073b000 Sz: 4096 	 Sm: 0 	 T: memcpy_h2d(1.758947)
F: 38755089----T: 38757694 	 St: 80740000 Sz: 4096 	 Sm: 0 	 T: memcpy_h2d(1.758947)
F: 38757694----T: 38760299 	 St: 80741000 Sz: 4096 	 Sm: 0 	 T: memcpy_h2d(1.758947)
F: 38760299----T: 38762904 	 St: 8051f000 Sz: 4096 	 Sm: 0 	 T: memcpy_h2d(1.758947)
F: 38762904----T: 38765509 	 St: 8073f000 Sz: 4096 	 Sm: 0 	 T: memcpy_h2d(1.758947)
F: 38765509----T: 38768114 	 St: 8051e000 Sz: 4096 	 Sm: 0 	 T: memcpy_h2d(1.758947)
F: 38768114----T: 38770719 	 St: 8073e000 Sz: 4096 	 Sm: 0 	 T: memcpy_h2d(1.758947)
F: 38770719----T: 38773324 	 St: 80732000 Sz: 4096 	 Sm: 0 	 T: memcpy_h2d(1.758947)
F: 38773324----T: 38775929 	 St: 80743000 Sz: 4096 	 Sm: 0 	 T: memcpy_h2d(1.758947)
F: 38775929----T: 38778534 	 St: 80744000 Sz: 4096 	 Sm: 0 	 T: memcpy_h2d(1.758947)
F: 38778534----T: 38781139 	 St: 806db000 Sz: 4096 	 Sm: 0 	 T: memcpy_h2d(1.758947)
F: 38781139----T: 38783744 	 St: 806d9000 Sz: 4096 	 Sm: 0 	 T: memcpy_h2d(1.758947)
F: 38783744----T: 38786349 	 St: 806da000 Sz: 4096 	 Sm: 0 	 T: memcpy_h2d(1.758947)
F: 38786349----T: 38788954 	 St: 80747000 Sz: 4096 	 Sm: 0 	 T: memcpy_h2d(1.758947)
F: 38788954----T: 38791559 	 St: 80748000 Sz: 4096 	 Sm: 0 	 T: memcpy_h2d(1.758947)
F: 38791559----T: 38794164 	 St: 80746000 Sz: 4096 	 Sm: 0 	 T: memcpy_h2d(1.758947)
F: 38794164----T: 38796769 	 St: 80745000 Sz: 4096 	 Sm: 0 	 T: memcpy_h2d(1.758947)
F: 38796769----T: 38799374 	 St: 80749000 Sz: 4096 	 Sm: 0 	 T: memcpy_h2d(1.758947)
F: 38799374----T: 38801979 	 St: 8074c000 Sz: 4096 	 Sm: 0 	 T: memcpy_h2d(1.758947)
F: 38801979----T: 38804584 	 St: 8074d000 Sz: 4096 	 Sm: 0 	 T: memcpy_h2d(1.758947)
F: 38804584----T: 38807189 	 St: 8074b000 Sz: 4096 	 Sm: 0 	 T: memcpy_h2d(1.758947)
F: 38807189----T: 38809794 	 St: 80750000 Sz: 4096 	 Sm: 0 	 T: memcpy_h2d(1.758947)
F: 38809794----T: 38812399 	 St: 80751000 Sz: 4096 	 Sm: 0 	 T: memcpy_h2d(1.758947)
F: 38812399----T: 38815004 	 St: 8074f000 Sz: 4096 	 Sm: 0 	 T: memcpy_h2d(1.758947)
F: 38815004----T: 38817609 	 St: 8074e000 Sz: 4096 	 Sm: 0 	 T: memcpy_h2d(1.758947)
F: 38817609----T: 38820214 	 St: 80742000 Sz: 4096 	 Sm: 0 	 T: memcpy_h2d(1.758947)
F: 38820214----T: 38822819 	 St: 80753000 Sz: 4096 	 Sm: 0 	 T: memcpy_h2d(1.758947)
F: 38822819----T: 38825424 	 St: 80754000 Sz: 4096 	 Sm: 0 	 T: memcpy_h2d(1.758947)
F: 38825424----T: 38828029 	 St: 806eb000 Sz: 4096 	 Sm: 0 	 T: memcpy_h2d(1.758947)
F: 38828029----T: 38830634 	 St: 806e9000 Sz: 4096 	 Sm: 0 	 T: memcpy_h2d(1.758947)
F: 38830634----T: 38833239 	 St: 806ea000 Sz: 4096 	 Sm: 0 	 T: memcpy_h2d(1.758947)
F: 38833239----T: 38835844 	 St: 80757000 Sz: 4096 	 Sm: 0 	 T: memcpy_h2d(1.758947)
F: 38835844----T: 38838449 	 St: 80758000 Sz: 4096 	 Sm: 0 	 T: memcpy_h2d(1.758947)
F: 38838449----T: 38841054 	 St: 80756000 Sz: 4096 	 Sm: 0 	 T: memcpy_h2d(1.758947)
F: 38841054----T: 38843659 	 St: 80755000 Sz: 4096 	 Sm: 0 	 T: memcpy_h2d(1.758947)
F: 38843659----T: 38846264 	 St: 80759000 Sz: 4096 	 Sm: 0 	 T: memcpy_h2d(1.758947)
F: 38846264----T: 38848869 	 St: 8075c000 Sz: 4096 	 Sm: 0 	 T: memcpy_h2d(1.758947)
F: 38848869----T: 38851474 	 St: 8075d000 Sz: 4096 	 Sm: 0 	 T: memcpy_h2d(1.758947)
F: 38851474----T: 38854079 	 St: 8075b000 Sz: 4096 	 Sm: 0 	 T: memcpy_h2d(1.758947)
F: 38854079----T: 38856684 	 St: 80760000 Sz: 4096 	 Sm: 0 	 T: memcpy_h2d(1.758947)
F: 38856684----T: 38859289 	 St: 80761000 Sz: 4096 	 Sm: 0 	 T: memcpy_h2d(1.758947)
F: 38859289----T: 38861894 	 St: 8075f000 Sz: 4096 	 Sm: 0 	 T: memcpy_h2d(1.758947)
F: 38861894----T: 38864499 	 St: 8075e000 Sz: 4096 	 Sm: 0 	 T: memcpy_h2d(1.758947)
F: 38864499----T: 38867104 	 St: 80752000 Sz: 4096 	 Sm: 0 	 T: memcpy_h2d(1.758947)
F: 38867104----T: 38869709 	 St: 80763000 Sz: 4096 	 Sm: 0 	 T: memcpy_h2d(1.758947)
F: 38869709----T: 38872314 	 St: 80764000 Sz: 4096 	 Sm: 0 	 T: memcpy_h2d(1.758947)
F: 38872314----T: 38874919 	 St: 806fb000 Sz: 4096 	 Sm: 0 	 T: memcpy_h2d(1.758947)
F: 38874919----T: 38877524 	 St: 806f9000 Sz: 4096 	 Sm: 0 	 T: memcpy_h2d(1.758947)
F: 38877524----T: 38880129 	 St: 806fa000 Sz: 4096 	 Sm: 0 	 T: memcpy_h2d(1.758947)
F: 38880129----T: 38882734 	 St: 80767000 Sz: 4096 	 Sm: 0 	 T: memcpy_h2d(1.758947)
F: 38882734----T: 38885339 	 St: 80768000 Sz: 4096 	 Sm: 0 	 T: memcpy_h2d(1.758947)
F: 38885339----T: 38887944 	 St: 80766000 Sz: 4096 	 Sm: 0 	 T: memcpy_h2d(1.758947)
F: 38887944----T: 38890549 	 St: 80765000 Sz: 4096 	 Sm: 0 	 T: memcpy_h2d(1.758947)
F: 38890549----T: 38893154 	 St: 80769000 Sz: 4096 	 Sm: 0 	 T: memcpy_h2d(1.758947)
F: 38893154----T: 38895759 	 St: 8076c000 Sz: 4096 	 Sm: 0 	 T: memcpy_h2d(1.758947)
F: 38895759----T: 38898364 	 St: 8076d000 Sz: 4096 	 Sm: 0 	 T: memcpy_h2d(1.758947)
F: 38898364----T: 38900969 	 St: 8076b000 Sz: 4096 	 Sm: 0 	 T: memcpy_h2d(1.758947)
F: 38900969----T: 38903574 	 St: 80770000 Sz: 4096 	 Sm: 0 	 T: memcpy_h2d(1.758947)
F: 38903574----T: 38906179 	 St: 80771000 Sz: 4096 	 Sm: 0 	 T: memcpy_h2d(1.758947)
F: 38906179----T: 38908784 	 St: 8076f000 Sz: 4096 	 Sm: 0 	 T: memcpy_h2d(1.758947)
F: 38908784----T: 38911389 	 St: 8076e000 Sz: 4096 	 Sm: 0 	 T: memcpy_h2d(1.758947)
F: 38911389----T: 38913994 	 St: 80762000 Sz: 4096 	 Sm: 0 	 T: memcpy_h2d(1.758947)
F: 38913994----T: 38916599 	 St: 80773000 Sz: 4096 	 Sm: 0 	 T: memcpy_h2d(1.758947)
F: 38916599----T: 38919204 	 St: 80774000 Sz: 4096 	 Sm: 0 	 T: memcpy_h2d(1.758947)
F: 38919204----T: 38921809 	 St: 804ea000 Sz: 4096 	 Sm: 0 	 T: memcpy_h2d(1.758947)
F: 38921809----T: 38924414 	 St: 8070a000 Sz: 4096 	 Sm: 0 	 T: memcpy_h2d(1.758947)
F: 38924414----T: 38927019 	 St: 80777000 Sz: 4096 	 Sm: 0 	 T: memcpy_h2d(1.758947)
F: 38927019----T: 38929624 	 St: 80778000 Sz: 4096 	 Sm: 0 	 T: memcpy_h2d(1.758947)
F: 38929624----T: 38932229 	 St: 80776000 Sz: 4096 	 Sm: 0 	 T: memcpy_h2d(1.758947)
F: 38932229----T: 38934834 	 St: 80775000 Sz: 4096 	 Sm: 0 	 T: memcpy_h2d(1.758947)
F: 38934834----T: 38937439 	 St: 80779000 Sz: 4096 	 Sm: 0 	 T: memcpy_h2d(1.758947)
F: 38937439----T: 38940044 	 St: 8077c000 Sz: 4096 	 Sm: 0 	 T: memcpy_h2d(1.758947)
F: 38940044----T: 38942649 	 St: 8077d000 Sz: 4096 	 Sm: 0 	 T: memcpy_h2d(1.758947)
F: 38942649----T: 38945254 	 St: 8077b000 Sz: 4096 	 Sm: 0 	 T: memcpy_h2d(1.758947)
F: 38945254----T: 38947859 	 St: 80780000 Sz: 4096 	 Sm: 0 	 T: memcpy_h2d(1.758947)
F: 38947859----T: 38950464 	 St: 80781000 Sz: 4096 	 Sm: 0 	 T: memcpy_h2d(1.758947)
F: 38950464----T: 38953069 	 St: 8077f000 Sz: 4096 	 Sm: 0 	 T: memcpy_h2d(1.758947)
F: 38953069----T: 38955674 	 St: 8077e000 Sz: 4096 	 Sm: 0 	 T: memcpy_h2d(1.758947)
F: 38955674----T: 38958279 	 St: 80772000 Sz: 4096 	 Sm: 0 	 T: memcpy_h2d(1.758947)
F: 38958279----T: 38960884 	 St: 80783000 Sz: 4096 	 Sm: 0 	 T: memcpy_h2d(1.758947)
F: 38960884----T: 38963489 	 St: 80784000 Sz: 4096 	 Sm: 0 	 T: memcpy_h2d(1.758947)
F: 38963489----T: 38966094 	 St: 804fa000 Sz: 4096 	 Sm: 0 	 T: memcpy_h2d(1.758947)
F: 38966094----T: 38968699 	 St: 8071a000 Sz: 4096 	 Sm: 0 	 T: memcpy_h2d(1.758947)
F: 38968699----T: 38971304 	 St: 80787000 Sz: 4096 	 Sm: 0 	 T: memcpy_h2d(1.758947)
F: 38971304----T: 38973909 	 St: 80788000 Sz: 4096 	 Sm: 0 	 T: memcpy_h2d(1.758947)
F: 38973909----T: 38976514 	 St: 80786000 Sz: 4096 	 Sm: 0 	 T: memcpy_h2d(1.758947)
F: 38976514----T: 38979119 	 St: 80785000 Sz: 4096 	 Sm: 0 	 T: memcpy_h2d(1.758947)
F: 38979119----T: 38981724 	 St: 80789000 Sz: 4096 	 Sm: 0 	 T: memcpy_h2d(1.758947)
F: 38981724----T: 38984329 	 St: 8078c000 Sz: 4096 	 Sm: 0 	 T: memcpy_h2d(1.758947)
F: 38984329----T: 38986934 	 St: 8078d000 Sz: 4096 	 Sm: 0 	 T: memcpy_h2d(1.758947)
F: 38986934----T: 38989539 	 St: 8078b000 Sz: 4096 	 Sm: 0 	 T: memcpy_h2d(1.758947)
F: 38989539----T: 38992144 	 St: 80790000 Sz: 4096 	 Sm: 0 	 T: memcpy_h2d(1.758947)
F: 38992144----T: 38994749 	 St: 80791000 Sz: 4096 	 Sm: 0 	 T: memcpy_h2d(1.758947)
F: 38994749----T: 38997354 	 St: 8078f000 Sz: 4096 	 Sm: 0 	 T: memcpy_h2d(1.758947)
F: 38997354----T: 38999959 	 St: 8078e000 Sz: 4096 	 Sm: 0 	 T: memcpy_h2d(1.758947)
F: 38999959----T: 39002564 	 St: 80782000 Sz: 4096 	 Sm: 0 	 T: memcpy_h2d(1.758947)
F: 39002564----T: 39005169 	 St: 80793000 Sz: 4096 	 Sm: 0 	 T: memcpy_h2d(1.758947)
F: 39005169----T: 39007774 	 St: 80794000 Sz: 4096 	 Sm: 0 	 T: memcpy_h2d(1.758947)
F: 39007774----T: 39010379 	 St: 8050a000 Sz: 4096 	 Sm: 0 	 T: memcpy_h2d(1.758947)
F: 39010379----T: 39012984 	 St: 8072a000 Sz: 4096 	 Sm: 0 	 T: memcpy_h2d(1.758947)
F: 39012984----T: 39015589 	 St: 80797000 Sz: 4096 	 Sm: 0 	 T: memcpy_h2d(1.758947)
F: 39015589----T: 39018194 	 St: 80798000 Sz: 4096 	 Sm: 0 	 T: memcpy_h2d(1.758947)
F: 39018194----T: 39020799 	 St: 80796000 Sz: 4096 	 Sm: 0 	 T: memcpy_h2d(1.758947)
F: 39020799----T: 39023404 	 St: 80795000 Sz: 4096 	 Sm: 0 	 T: memcpy_h2d(1.758947)
F: 39023404----T: 39026009 	 St: 80799000 Sz: 4096 	 Sm: 0 	 T: memcpy_h2d(1.758947)
F: 39026009----T: 39028614 	 St: 8079c000 Sz: 4096 	 Sm: 0 	 T: memcpy_h2d(1.758947)
F: 39028614----T: 39031219 	 St: 8079d000 Sz: 4096 	 Sm: 0 	 T: memcpy_h2d(1.758947)
F: 39031219----T: 39033824 	 St: 8079b000 Sz: 4096 	 Sm: 0 	 T: memcpy_h2d(1.758947)
F: 39033824----T: 39036429 	 St: 807a0000 Sz: 4096 	 Sm: 0 	 T: memcpy_h2d(1.758947)
F: 39036429----T: 39039034 	 St: 807a1000 Sz: 4096 	 Sm: 0 	 T: memcpy_h2d(1.758947)
F: 39039034----T: 39041639 	 St: 8079f000 Sz: 4096 	 Sm: 0 	 T: memcpy_h2d(1.758947)
F: 39041639----T: 39044244 	 St: 8079e000 Sz: 4096 	 Sm: 0 	 T: memcpy_h2d(1.758947)
F: 39044244----T: 39046849 	 St: 80792000 Sz: 4096 	 Sm: 0 	 T: memcpy_h2d(1.758947)
F: 39046849----T: 39049454 	 St: 8051a000 Sz: 4096 	 Sm: 0 	 T: memcpy_h2d(1.758947)
F: 39049454----T: 39052059 	 St: 8073a000 Sz: 4096 	 Sm: 0 	 T: memcpy_h2d(1.758947)
F: 39052059----T: 39054664 	 St: 807a2000 Sz: 4096 	 Sm: 0 	 T: memcpy_h2d(1.758947)
F: 39054664----T: 39057269 	 St: 8074a000 Sz: 4096 	 Sm: 0 	 T: memcpy_h2d(1.758947)
F: 39058363----T: 39060968 	 St: 8075a000 Sz: 4096 	 Sm: 0 	 T: memcpy_h2d(1.758947)
F: 39062065----T: 39064670 	 St: 8076a000 Sz: 4096 	 Sm: 0 	 T: memcpy_h2d(1.758947)
F: 39062065----T: 39070767 	 St: 80563000 Sz: 65536 	 Sm: 0 	 T: write_back(5.875760)
F: 39064670----T: 39067275 	 St: 8056b000 Sz: 4096 	 Sm: 0 	 T: memcpy_h2d(1.758947)
F: 39067275----T: 39069880 	 St: 80569000 Sz: 4096 	 Sm: 0 	 T: memcpy_h2d(1.758947)
F: 39069880----T: 39072485 	 St: 8077a000 Sz: 4096 	 Sm: 0 	 T: memcpy_h2d(1.758947)
F: 39073002----T: 39075607 	 St: 8056a000 Sz: 4096 	 Sm: 0 	 T: memcpy_h2d(1.758947)
F: 39075607----T: 39078212 	 St: 8078a000 Sz: 4096 	 Sm: 0 	 T: memcpy_h2d(1.758947)
F: 39079307----T: 39081912 	 St: 8079a000 Sz: 4096 	 Sm: 0 	 T: memcpy_h2d(1.758947)
F: 39083175----T: 39085780 	 St: 0 Sz: 4096 	 Sm: 0 	 T: device_sync(1.758947)
F: 39083175----T: 39091415 	 St: 0 Sz: 61440 	 Sm: 0 	 T: device_sync(5.563808)
F: 39094020----T: 39096625 	 St: 0 Sz: 4096 	 Sm: 0 	 T: device_sync(1.758947)
F: 39094020----T: 39102260 	 St: 0 Sz: 61440 	 Sm: 0 	 T: device_sync(5.563808)
F: 39104865----T: 39107470 	 St: 0 Sz: 4096 	 Sm: 0 	 T: device_sync(1.758947)
F: 39104865----T: 39120560 	 St: 0 Sz: 126976 	 Sm: 0 	 T: device_sync(10.597569)
F: 39123165----T: 39125770 	 St: 0 Sz: 4096 	 Sm: 0 	 T: device_sync(1.758947)
F: 39123165----T: 39153888 	 St: 0 Sz: 258048 	 Sm: 0 	 T: device_sync(20.744766)
F: 39156493----T: 39159098 	 St: 0 Sz: 4096 	 Sm: 0 	 T: device_sync(1.758947)
F: 39156493----T: 39217329 	 St: 0 Sz: 520192 	 Sm: 0 	 T: device_sync(41.077652)
F: 39219934----T: 39222539 	 St: 0 Sz: 4096 	 Sm: 0 	 T: device_sync(1.758947)
F: 39219934----T: 39321722 	 St: 0 Sz: 876544 	 Sm: 0 	 T: device_sync(68.729240)
Tot_prefetch_time: 0(cycle), 0.000000(us)
Tot_kernel_exec_time: 30197175(cycle), 20389.720703(us)
Tot_kernel_exec_time_and_fault_time: 785551605(cycle), 530419.750000(us)
Tot_memcpy_h2d_time: 30013781(cycle), 20265.888672(us)
Tot_memcpy_d2h_time: 0(cycle), 0.000000(us)
Tot_memcpy_time: 30013781(cycle), 20265.888672(us)
Tot_devicesync_time: 241152(cycle), 162.830521(us)
Tot_writeback_time: 6041311(cycle), 4079.210693(us)
Tot_rdma_time: 0(cycle), 0.000000(us)
Tot_memcpy_d2h_sync_wb_time: 6282463(cycle), 4242.041016(us)
GPGPU-Sim: *** exit detected ***
