

        *** GPGPU-Sim Simulator Version 3.2.2  [build gpgpu-sim_git-commit-7c62de1d26a7fea160a1181332b97276bc435f13_modified_1] ***


GPGPU-Sim PTX: simulation mode 0 (can change with PTX_SIM_MODE_FUNC environment variable:
               1=functional simulation only, 0=detailed performance simulator)
GPGPU-Sim: Configuration options:

-network_mode                           1 # Interconnection network mode
-inter_config_file   config_fermi_islip.icnt # Interconnection network config file
-gpgpu_ptx_use_cuobjdump                    1 # Use cuobjdump to extract ptx and sass from binaries
-gpgpu_experimental_lib_support                    0 # Try to extract code from cuda libraries [Broken because of unknown cudaGetExportTable]
-gpgpu_ptx_convert_to_ptxplus                    0 # Convert SASS (native ISA) to ptxplus and run ptxplus
-gpgpu_ptx_force_max_capability                   20 # Force maximum compute capability
-gpgpu_ptx_inst_debug_to_file                    0 # Dump executed instructions' debug information to file
-gpgpu_ptx_inst_debug_file       inst_debug.txt # Executed instructions' debug output file
-gpgpu_ptx_inst_debug_thread_uid                    1 # Thread UID for executed instructions' debug output
-gpgpu_simd_model                       1 # 1 = post-dominator
-gpgpu_shader_core_pipeline              2048:32 # shader core pipeline config, i.e., {<nthread>:<warpsize>}
-gpgpu_tex_cache:l1  16:128:24,L:R:m:N:L,F:128:4,128:2 # per-shader L1 texture cache  (READ-ONLY) config  {<nsets>:<bsize>:<assoc>,<rep>:<wr>:<alloc>:<wr_alloc>,<mshr>:<N>:<merge>,<mq>:<rf>}
-gpgpu_const_cache:l1 128:64:2,L:R:f:N:L,A:2:64,4 # per-shader L1 constant memory cache  (READ-ONLY) config  {<nsets>:<bsize>:<assoc>,<rep>:<wr>:<alloc>:<wr_alloc>,<mshr>:<N>:<merge>,<mq>} 
-gpgpu_cache:il1     8:128:4,L:R:f:N:L,A:2:48,4 # shader L1 instruction cache config  {<nsets>:<bsize>:<assoc>,<rep>:<wr>:<alloc>:<wr_alloc>,<mshr>:<N>:<merge>,<mq>} 
-gpgpu_cache:dl1     64:128:6,L:L:m:N:H,A:128:8,8 # per-shader L1 data cache config  {<nsets>:<bsize>:<assoc>,<rep>:<wr>:<alloc>:<wr_alloc>,<mshr>:<N>:<merge>,<mq> | none}
-gpgpu_cache:dl1PrefL1                 none # per-shader L1 data cache config  {<nsets>:<bsize>:<assoc>,<rep>:<wr>:<alloc>:<wr_alloc>,<mshr>:<N>:<merge>,<mq> | none}
-gpgpu_cache:dl1PrefShared                 none # per-shader L1 data cache config  {<nsets>:<bsize>:<assoc>,<rep>:<wr>:<alloc>:<wr_alloc>,<mshr>:<N>:<merge>,<mq> | none}
-gmem_skip_L1D                          1 # global memory access skip L1D cache (implements -Xptxas -dlcm=cg, default=no skip)
-gpgpu_perfect_mem                      0 # enable perfect memory mode (no cache miss)
-n_regfile_gating_group                    4 # group of lanes that should be read/written together)
-gpgpu_clock_gated_reg_file                    0 # enable clock gated reg file for power calculations
-gpgpu_clock_gated_lanes                    0 # enable clock gated lanes for power calculations
-gpgpu_shader_registers                65536 # Number of registers per shader core. Limits number of concurrent CTAs. (default 8192)
-gpgpu_shader_cta                      32 # Maximum number of concurrent CTAs in shader (default 8)
-gpgpu_num_cta_barriers                   16 # Maximum number of named barriers per CTA (default 16)
-gpgpu_n_clusters                      28 # number of processing clusters
-gpgpu_n_cores_per_cluster                    1 # number of simd cores per cluster
-gpgpu_n_cluster_ejection_buffer_size                    8 # number of packets in ejection buffer
-gpgpu_n_ldst_response_buffer_size                    2 # number of response packets in ld/st unit ejection buffer
-gpgpu_shmem_size                   16384 # Size of shared memory per shader core (default 16kB)
-gpgpu_shmem_size                   98304 # Size of shared memory per shader core (default 16kB)
-gpgpu_shmem_size_PrefL1                16384 # Size of shared memory per shader core (default 16kB)
-gpgpu_shmem_size_PrefShared                16384 # Size of shared memory per shader core (default 16kB)
-gpgpu_shmem_num_banks                   32 # Number of banks in the shared memory in each shader core (default 16)
-gpgpu_shmem_limited_broadcast                    0 # Limit shared memory to do one broadcast per cycle (default on)
-gpgpu_shmem_warp_parts                    1 # Number of portions a warp is divided into for shared memory bank conflict check 
-gpgpu_warpdistro_shader                   -1 # Specify which shader core to collect the warp size distribution from
-gpgpu_warp_issue_shader                    0 # Specify which shader core to collect the warp issue distribution from
-gpgpu_local_mem_map                    1 # Mapping from local memory space address to simulated GPU physical address space (default = enabled)
-gpgpu_num_reg_banks                   32 # Number of register banks (default = 8)
-gpgpu_reg_bank_use_warp_id                    0 # Use warp ID in mapping registers to banks (default = off)
-gpgpu_operand_collector_num_units_sp                   20 # number of collector units (default = 4)
-gpgpu_operand_collector_num_units_sfu                    4 # number of collector units (default = 4)
-gpgpu_operand_collector_num_units_mem                    8 # number of collector units (default = 2)
-gpgpu_operand_collector_num_units_gen                    0 # number of collector units (default = 0)
-gpgpu_operand_collector_num_in_ports_sp                    4 # number of collector unit in ports (default = 1)
-gpgpu_operand_collector_num_in_ports_sfu                    1 # number of collector unit in ports (default = 1)
-gpgpu_operand_collector_num_in_ports_mem                    1 # number of collector unit in ports (default = 1)
-gpgpu_operand_collector_num_in_ports_gen                    0 # number of collector unit in ports (default = 0)
-gpgpu_operand_collector_num_out_ports_sp                    4 # number of collector unit in ports (default = 1)
-gpgpu_operand_collector_num_out_ports_sfu                    1 # number of collector unit in ports (default = 1)
-gpgpu_operand_collector_num_out_ports_mem                    1 # number of collector unit in ports (default = 1)
-gpgpu_operand_collector_num_out_ports_gen                    0 # number of collector unit in ports (default = 0)
-gpgpu_coalesce_arch                   13 # Coalescing arch (default = 13, anything else is off for now)
-gpgpu_num_sched_per_core                    2 # Number of warp schedulers per core
-gpgpu_max_insn_issue_per_warp                    2 # Max number of instructions that can be issued per warp in one cycle by scheduler
-gpgpu_simt_core_sim_order                    1 # Select the simulation order of cores in a cluster (0=Fix, 1=Round-Robin)
-gpgpu_pipeline_widths        4,1,1,4,1,1,6 # Pipeline widths ID_OC_SP,ID_OC_SFU,ID_OC_MEM,OC_EX_SP,OC_EX_SFU,OC_EX_MEM,EX_WB
-gpgpu_num_sp_units                     4 # Number of SP units (default=1)
-gpgpu_num_sfu_units                    1 # Number of SF units (default=1)
-gpgpu_num_mem_units                    1 # Number if ldst units (default=1) WARNING: not hooked up to anything
-gpgpu_scheduler                      gto # Scheduler configuration: < lrr | gto | two_level_active > If two_level_active:<num_active_warps>:<inner_prioritization>:<outer_prioritization>For complete list of prioritization values see shader.h enum scheduler_prioritization_typeDefault: gto
-gpgpu_concurrent_kernel_sm                    0 # Support concurrent kernels on a SM (default = disabled)
-tlb_size                            4096 # Number of tlb entries per SM.
-gpgpu_dram_scheduler                    1 # 0 = fifo, 1 = FR-FCFS (defaul)
-gpgpu_dram_partition_queues              8:8:8:8 # i2$:$2d:d2$:$2i
-l2_ideal                               0 # Use a ideal L2 cache that always hit
-gpgpu_cache:dl2     64:128:16,L:B:m:W:L,A:1024:1024,4:0,32 # unified banked L2 data cache config  {<nsets>:<bsize>:<assoc>,<rep>:<wr>:<alloc>:<wr_alloc>,<mshr>:<N>:<merge>,<mq>}
-gpgpu_cache:dl2_texture_only                    0 # L2 cache used for texture only
-gpgpu_n_mem                           11 # number of memory modules (e.g. memory controllers) in gpu
-gpgpu_n_sub_partition_per_mchannel                    2 # number of memory subpartition in each memory module
-gpgpu_n_mem_per_ctrlr                    1 # number of memory chips per memory controller
-gpgpu_memlatency_stat                   14 # track and display latency statistics 0x2 enables MC, 0x4 enables queue logs
-gpgpu_frfcfs_dram_sched_queue_size                   64 # 0 = unlimited (default); # entries per chip
-gpgpu_dram_return_queue_size                  116 # 0 = unlimited (default); # entries per chip
-gpgpu_dram_buswidth                    4 # default = 4 bytes (8 bytes per cycle at DDR)
-gpgpu_dram_burst_length                    8 # Burst length of each DRAM request (default = 4 data bus cycle)
-dram_data_command_freq_ratio                    4 # Frequency ratio between DRAM data bus and command bus (default = 2 times, i.e. DDR)
-gpgpu_dram_timing_opt nbk=16:CCD=2:RRD=6:RCD=12:RAS=28:RP=12:RC=40: CL=12:WL=4:CDLR=5:WR=12:nbkgrp=1:CCDL=0:RTPL=0 # DRAM timing parameters = {nbk:tCCD:tRRD:tRCD:tRAS:tRP:tRC:CL:WL:tCDLR:tWR:nbkgrp:tCCDL:tRTPL}
-rop_latency                          120 # ROP queue latency (default 85)
-dram_latency                         100 # DRAM latency (default 30)
-gpgpu_mem_addr_mapping dramid@8;00000000.00000000.00000000.00000000.0000RRRR.RRRRRRRR.RBBBCCCC.BCCSSSSS # mapping memory address to dram model {dramid@<start bit>;<memory address map>}
-gpgpu_mem_addr_test                    0 # run sweep test to check address mapping for aliased address
-gpgpu_mem_address_mask                    1 # 0 = old addressing mask, 1 = new addressing mask, 2 = new add. mask + flipped bank sel and chip sel bits
-gpuwattch_xml_file  gpuwattch_geforcegtx1080ti.xml # GPUWattch XML file
-power_simulation_enabled                    1 # Turn on power simulator (1=On, 0=Off)
-power_per_cycle_dump                    0 # Dump detailed power output each cycle
-power_trace_enabled                    0 # produce a file for the power trace (1=On, 0=Off)
-power_trace_zlevel                     6 # Compression level of the power trace output log (0=no comp, 9=highest)
-steady_power_levels_enabled                    0 # produce a file for the steady power levels (1=On, 0=Off)
-steady_state_definition                  8:4 # allowed deviation:number of samples
-gpgpu_max_cycle                        0 # terminates gpu simulation early (0 = no limit)
-gpgpu_max_insn                         0 # terminates gpu simulation early (0 = no limit)
-gpgpu_max_cta                          0 # terminates gpu simulation early (0 = no limit)
-gpgpu_runtime_stat                   500 # display runtime statistics such as dram utilization {<freq>:<flag>}
-liveness_message_freq                    1 # Minimum number of seconds between simulation liveness messages (0 = always print)
-gpgpu_flush_l1_cache                    0 # Flush L1 cache at the end of each kernel call
-gpgpu_flush_l2_cache                    0 # Flush L2 cache at the end of each kernel call
-gpgpu_deadlock_detect                    0 # Stop the simulation at deadlock (1=on (default), 0=off)
-gpgpu_ptx_instruction_classification                    0 # if enabled will classify ptx instruction types per kernel (Max 255 kernels now)
-gpgpu_ptx_sim_mode                     0 # Select between Performance (default) or Functional simulation (1)
-gpgpu_clock_domains 1481.0:2962.0:1481.0:2750.0 # Clock Domain Frequencies in MhZ {<Core Clock>:<ICNT Clock>:<L2 Clock>:<DRAM Clock>}
-gpgpu_max_concurrent_kernel                    8 # maximum kernels that can run concurrently on GPU
-gpgpu_cflog_interval                    0 # Interval between each snapshot in control flow logger
-visualizer_enabled                     0 # Turn on visualizer output (1=On, 0=Off)
-visualizer_outputfile                 NULL # Specifies the output log file for visualizer
-visualizer_zlevel                      6 # Compression level of the visualizer output log (0=no comp, 9=highest)
-trace_enabled                          0 # Turn on traces
-trace_components                    none # comma seperated list of traces to enable. Complete list found in trace_streams.tup. Default none
-trace_sampling_core                    0 # The core which is printed using CORE_DPRINTF. Default 0
-trace_sampling_memory_partition                   -1 # The memory partition which is printed using MEMPART_DPRINTF. Default -1 (i.e. all)
-gddr_size                            1GB # Size of GDDR in MB/GB.(GLOBAL_HEAP_START, GLOBAL_HEAP_START + gddr_size) would be used for unmanged memory, (GLOBAL_HEAP_START + gddr_size, GLOBAL_HEAP_START + gddr_size*2) would be used for managed memory. 
-page_table_walk_latency                  100 # Average page table walk latency (in core cycle).
-eviction_policy                      lru # Memory eviction policy: lru or random.
-percentage_of_free_page_buffer                    0 # Percentage of free page buffer to trigger the page eviction.
-page_size                            4KB # GDDR page size, only 4KB/2MB avaliable.
-pcie_bandwith                   64.0GB/s # PCI-e bandwith per direction, in GB/s.
-sim_prof_enable                        1 # Enable gpgpu-sim profiler
-hardware_prefetch                      1 # Enable gpgpu-sim hardware prefetcher
-page_fault_latency                 66645 # Average fault latency (in core cycle).
-enable_accurate_simulation                    0 # Enable page fault functional simulation.
-enable_ptx_file_line_stats                    1 # Turn on PTX source line statistic profiling. (1 = On)
-ptx_line_stats_filename gpgpu_inst_stats.txt # Output file for PTX source line statistics.
-gpgpu_kernel_launch_latency               222150 # Kernel launch latency in cycles. Default: 0
-gpgpu_cdp_enabled                      0 # Turn on CDP
-save_embedded_ptx                      0 # saves ptx files embedded in binary as <n>.ptx
-keep                                   0 # keep intermediate files created by GPGPU-Sim when interfacing with external programs
-gpgpu_ptx_save_converted_ptxplus                    0 # Saved converted ptxplus to a file
-ptx_opcode_latency_int         4,13,4,5,145 # Opcode latencies for integers <ADD,MAX,MUL,MAD,DIV>Default 1,1,19,25,145
-ptx_opcode_latency_fp          4,13,4,5,39 # Opcode latencies for single precision floating points <ADD,MAX,MUL,MAD,DIV>Default 1,1,1,1,30
-ptx_opcode_latency_dp         8,19,8,8,330 # Opcode latencies for double precision floating points <ADD,MAX,MUL,MAD,DIV>Default 8,8,8,8,335
-ptx_opcode_initiation_int            1,2,2,2,8 # Opcode initiation intervals for integers <ADD,MAX,MUL,MAD,DIV>Default 1,1,4,4,32
-ptx_opcode_initiation_fp            1,2,1,1,4 # Opcode initiation intervals for single precision floating points <ADD,MAX,MUL,MAD,DIV>Default 1,1,1,1,5
-ptx_opcode_initiation_dp          1,2,1,1,130 # Opcode initiation intervals for double precision floating points <ADD,MAX,MUL,MAD,DIV>Default 8,8,8,8,130
-cdp_latency         7200,8000,100,12000,1600 # CDP API latency <cudaStreamCreateWithFlags, cudaGetParameterBufferV2_init_perWarp, cudaGetParameterBufferV2_perKernel, cudaLaunchDeviceV2_init_perWarp, cudaLaunchDevicV2_perKernel>Default 7200,8000,100,12000,1600
DRAM Timing Options:
nbk                                    16 # number of banks
CCD                                     2 # column to column delay
RRD                                     6 # minimal delay between activation of rows in different banks
RCD                                    12 # row to column delay
RAS                                    28 # time needed to activate row
RP                                     12 # time needed to precharge (deactivate) row
RC                                     40 # row cycle time
CDLR                                    5 # switching from write to read (changes tWTR)
WR                                     12 # last data-in to row precharge
CL                                     12 # CAS latency
WL                                      4 # Write latency
nbkgrp                                  1 # number of bank groups
CCDL                                    0 # column to column delay between accesses to different bank groups
RTPL                                    0 # read to precharge delay between accesses to different bank groups
Total number of memory sub partition = 22
addr_dec_mask[CHIP]  = 0000000000000000 	high:64 low:0
addr_dec_mask[BK]    = 0000000000007080 	high:15 low:7
addr_dec_mask[ROW]   = 000000000fff8000 	high:28 low:15
addr_dec_mask[COL]   = 0000000000000f7f 	high:12 low:0
addr_dec_mask[BURST] = 000000000000001f 	high:5 low:0
sub_partition_id_mask = 0000000000000080
GPGPU-Sim uArch: clock freqs: 1481000000.000000:2962000000.000000:1481000000.000000:2750000000.000000
GPGPU-Sim uArch: clock periods: 0.00000000067521944632:0.00000000033760972316:0.00000000067521944632:0.00000000036363636364
*** Initializing Memory Statistics ***
GPGPU-Sim uArch: interconnect node map (shaderID+MemID to icntID)
GPGPU-Sim uArch: Memory nodes ID start from index: 28
GPGPU-Sim uArch:    0   1   2   3   4   5   6
GPGPU-Sim uArch:    7   8   9  10  11  12  13
GPGPU-Sim uArch:   14  15  16  17  18  19  20
GPGPU-Sim uArch:   21  22  23  24  25  26  27
GPGPU-Sim uArch:   28  29  30  31  32  33  34
GPGPU-Sim uArch:   35  36  37  38  39  40  41
GPGPU-Sim uArch:   42  43  44  45  46  47  48
GPGPU-Sim uArch:   49
GPGPU-Sim uArch: interconnect node reverse map (icntID to shaderID+MemID)
GPGPU-Sim uArch: Memory nodes start from ID: 28
GPGPU-Sim uArch:    0   1   2   3   4   5   6
GPGPU-Sim uArch:    7   8   9  10  11  12  13
GPGPU-Sim uArch:   14  15  16  17  18  19  20
GPGPU-Sim uArch:   21  22  23  24  25  26  27
GPGPU-Sim uArch:   28  29  30  31  32  33  34
GPGPU-Sim uArch:   35  36  37  38  39  40  41
GPGPU-Sim uArch:   42  43  44  45  46  47  48
GPGPU-Sim uArch:   49
f0130257de8d727bf4e6332a7778bc0f  /home/moh18/gpgpu-sim_UVM_pcie5.0/benchmarks/Managed/bfs/bfs
GPGPU-Sim uArch: performance model initialization complete.
GPGPU-Sim PTX: __cudaRegisterFatBinary, fat_cubin_handle = 1, filename=default
self exe links to: /home/moh18/gpgpu-sim_UVM_pcie5.0/benchmarks/Managed/bfs/bfs
Running md5sum using "md5sum /home/moh18/gpgpu-sim_UVM_pcie5.0/benchmarks/Managed/bfs/bfs "
Parsing file _cuobjdump_complete_output_6N1mWR
######### cuobjdump parser ########
## Adding new section ELF
Adding arch: sm_20
Adding identifier: default
## Adding new section ELF
Adding arch: sm_20
Adding identifier: default
## Adding new section PTX
Adding ptx filename: _cuobjdump_1.ptx
Adding arch: sm_20
Adding identifier: default
Done parsing!!!
GPGPU-Sim PTX: __cudaRegisterFunction _Z7Kernel2PbS_S_S_i : hostFun 0x0x401649, fat_cubin_handle = 1
GPGPU-Sim PTX: instruction assembly for function '_Z6KernelP4NodePiPbS2_S2_S1_i'...   done.
GPGPU-Sim PTX: finding reconvergence points for '_Z6KernelP4NodePiPbS2_S2_S1_i'...
GPGPU-Sim PTX: Finding dominators for '_Z6KernelP4NodePiPbS2_S2_S1_i'...
GPGPU-Sim PTX: Finding immediate dominators for '_Z6KernelP4NodePiPbS2_S2_S1_i'...
GPGPU-Sim PTX: Finding postdominators for '_Z6KernelP4NodePiPbS2_S2_S1_i'...
GPGPU-Sim PTX: Finding immediate postdominators for '_Z6KernelP4NodePiPbS2_S2_S1_i'...
GPGPU-Sim PTX: pre-decoding instructions for '_Z6KernelP4NodePiPbS2_S2_S1_i'...
GPGPU-Sim PTX: reconvergence points for _Z6KernelP4NodePiPbS2_S2_S1_i...
GPGPU-Sim PTX:  1 (potential) branch divergence @  PC=0x060 (_1.ptx:42) @%p1 bra BB0_7;
GPGPU-Sim PTX:    immediate post dominator      @  PC=0x1e8 (_1.ptx:101) ret;
GPGPU-Sim PTX:  2 (potential) branch divergence @  PC=0x090 (_1.ptx:49) @%p2 bra BB0_7;
GPGPU-Sim PTX:    immediate post dominator      @  PC=0x1e8 (_1.ptx:101) ret;
GPGPU-Sim PTX:  3 (potential) branch divergence @  PC=0x0d8 (_1.ptx:59) @%p3 bra BB0_7;
GPGPU-Sim PTX:    immediate post dominator      @  PC=0x1e8 (_1.ptx:101) ret;
GPGPU-Sim PTX:  4 (potential) branch divergence @  PC=0x160 (_1.ptx:79) @%p4 bra BB0_6;
GPGPU-Sim PTX:    immediate post dominator      @  PC=0x1b8 (_1.ptx:93) mov.u32 %r24, %r25;
GPGPU-Sim PTX:  5 (potential) branch divergence @  PC=0x1e0 (_1.ptx:98) @%p5 bra BB0_4;
GPGPU-Sim PTX:    immediate post dominator      @  PC=0x1e8 (_1.ptx:101) ret;
GPGPU-Sim PTX: ... end of reconvergence points for _Z6KernelP4NodePiPbS2_S2_S1_i
GPGPU-Sim PTX: ... done pre-decoding instructions for '_Z6KernelP4NodePiPbS2_S2_S1_i'.
GPGPU-Sim PTX: instruction assembly for function '_Z7Kernel2PbS_S_S_i'...   done.
GPGPU-Sim PTX: finding reconvergence points for '_Z7Kernel2PbS_S_S_i'...
GPGPU-Sim PTX: Finding dominators for '_Z7Kernel2PbS_S_S_i'...
GPGPU-Sim PTX: Finding immediate dominators for '_Z7Kernel2PbS_S_S_i'...
GPGPU-Sim PTX: Finding postdominators for '_Z7Kernel2PbS_S_S_i'...
GPGPU-Sim PTX: Finding immediate postdominators for '_Z7Kernel2PbS_S_S_i'...
GPGPU-Sim PTX: pre-decoding instructions for '_Z7Kernel2PbS_S_S_i'...
GPGPU-Sim PTX: reconvergence points for _Z7Kernel2PbS_S_S_i...
GPGPU-Sim PTX:  1 (potential) branch divergence @  PC=0x240 (_1.ptx:129) @%p1 bra BB1_3;
GPGPU-Sim PTX:    immediate post dominator      @  PC=0x2d0 (_1.ptx:151) ret;
GPGPU-Sim PTX:  2 (potential) branch divergence @  PC=0x270 (_1.ptx:136) @%p2 bra BB1_3;
GPGPU-Sim PTX:    immediate post dominator      @  PC=0x2d0 (_1.ptx:151) ret;
GPGPU-Sim PTX: ... end of reconvergence points for _Z7Kernel2PbS_S_S_i
GPGPU-Sim PTX: ... done pre-decoding instructions for '_Z7Kernel2PbS_S_S_i'.
GPGPU-Sim PTX: finished parsing EMBEDDED .ptx file _1.ptx
Adding _cuobjdump_1.ptx with cubin handle 1
GPGPU-Sim PTX: extracting embedded .ptx to temporary file "_ptx_wBLLWk"
Running: cat _ptx_wBLLWk | sed 's/.version 1.5/.version 1.4/' | sed 's/, texmode_independent//' | sed 's/\(\.extern \.const\[1\] .b8 \w\+\)\[\]/\1\[1\]/' | sed 's/const\[.\]/const\[0\]/g' > _ptx2_70fcXN
GPGPU-Sim PTX: generating ptxinfo using "$CUDA_INSTALL_PATH/bin/ptxas --gpu-name=sm_20 -v _ptx2_70fcXN --output-file  /dev/null 2> _ptx_wBLLWkinfo"
GPGPU-Sim PTX: Kernel '_Z7Kernel2PbS_S_S_i' : regs=12, lmem=0, smem=0, cmem=68
GPGPU-Sim PTX: Kernel '_Z6KernelP4NodePiPbS2_S2_S1_i' : regs=15, lmem=0, smem=0, cmem=84
GPGPU-Sim PTX: removing ptxinfo using "rm -f _ptx_wBLLWk _ptx2_70fcXN _ptx_wBLLWkinfo"
GPGPU-Sim PTX: loading globals with explicit initializers... 
GPGPU-Sim PTX: finished loading globals (0 bytes total).
GPGPU-Sim PTX: loading constants with explicit initializers...  done.
GPGPU-Sim PTX: __cudaRegisterFunction _Z6KernelP4NodePiPbS2_S2_S1_i : hostFun 0x0x401519, fat_cubin_handle = 1
Reading File
Read File
Copied Everything to GPU memory
Start traversing the tree

GPGPU-Sim PTX: cudaLaunch for 0x0x401519 (mode=performance simulation) on stream 0
GPGPU-Sim PTX: pushing kernel '_Z6KernelP4NodePiPbS2_S2_S1_i' to stream 0, gridDim= (128,1,1) blockDim = (512,1,1) 
GPGPU-Sim uArch: Shader 1 bind to kernel 1 '_Z6KernelP4NodePiPbS2_S2_S1_i'
GPGPU-Sim uArch: CTA/core = 4, limited by: threads
GPGPU-Sim uArch: Shader 2 bind to kernel 1 '_Z6KernelP4NodePiPbS2_S2_S1_i'
GPGPU-Sim uArch: Shader 3 bind to kernel 1 '_Z6KernelP4NodePiPbS2_S2_S1_i'
GPGPU-Sim uArch: Shader 4 bind to kernel 1 '_Z6KernelP4NodePiPbS2_S2_S1_i'
GPGPU-Sim uArch: Shader 5 bind to kernel 1 '_Z6KernelP4NodePiPbS2_S2_S1_i'
GPGPU-Sim uArch: Shader 6 bind to kernel 1 '_Z6KernelP4NodePiPbS2_S2_S1_i'
GPGPU-Sim uArch: Shader 7 bind to kernel 1 '_Z6KernelP4NodePiPbS2_S2_S1_i'
GPGPU-Sim uArch: Shader 8 bind to kernel 1 '_Z6KernelP4NodePiPbS2_S2_S1_i'
GPGPU-Sim uArch: Shader 9 bind to kernel 1 '_Z6KernelP4NodePiPbS2_S2_S1_i'
GPGPU-Sim uArch: Shader 10 bind to kernel 1 '_Z6KernelP4NodePiPbS2_S2_S1_i'
GPGPU-Sim uArch: Shader 11 bind to kernel 1 '_Z6KernelP4NodePiPbS2_S2_S1_i'
GPGPU-Sim uArch: Shader 12 bind to kernel 1 '_Z6KernelP4NodePiPbS2_S2_S1_i'
GPGPU-Sim uArch: Shader 13 bind to kernel 1 '_Z6KernelP4NodePiPbS2_S2_S1_i'
GPGPU-Sim uArch: Shader 14 bind to kernel 1 '_Z6KernelP4NodePiPbS2_S2_S1_i'
GPGPU-Sim uArch: Shader 15 bind to kernel 1 '_Z6KernelP4NodePiPbS2_S2_S1_i'
GPGPU-Sim uArch: Shader 16 bind to kernel 1 '_Z6KernelP4NodePiPbS2_S2_S1_i'
GPGPU-Sim uArch: Shader 17 bind to kernel 1 '_Z6KernelP4NodePiPbS2_S2_S1_i'
GPGPU-Sim uArch: Shader 18 bind to kernel 1 '_Z6KernelP4NodePiPbS2_S2_S1_i'
GPGPU-Sim uArch: Shader 19 bind to kernel 1 '_Z6KernelP4NodePiPbS2_S2_S1_i'
GPGPU-Sim uArch: Shader 20 bind to kernel 1 '_Z6KernelP4NodePiPbS2_S2_S1_i'
GPGPU-Sim uArch: Shader 21 bind to kernel 1 '_Z6KernelP4NodePiPbS2_S2_S1_i'
GPGPU-Sim uArch: Shader 22 bind to kernel 1 '_Z6KernelP4NodePiPbS2_S2_S1_i'
GPGPU-Sim uArch: Shader 23 bind to kernel 1 '_Z6KernelP4NodePiPbS2_S2_S1_i'
GPGPU-Sim uArch: Shader 24 bind to kernel 1 '_Z6KernelP4NodePiPbS2_S2_S1_i'
GPGPU-Sim uArch: Shader 25 bind to kernel 1 '_Z6KernelP4NodePiPbS2_S2_S1_i'
GPGPU-Sim uArch: Shader 26 bind to kernel 1 '_Z6KernelP4NodePiPbS2_S2_S1_i'
GPGPU-Sim uArch: Shader 27 bind to kernel 1 '_Z6KernelP4NodePiPbS2_S2_S1_i'
GPGPU-Sim uArch: Shader 0 bind to kernel 1 '_Z6KernelP4NodePiPbS2_S2_S1_i'
Destroy streams for kernel 1: size 0
kernel_name = _Z6KernelP4NodePiPbS2_S2_S1_i 
kernel_launch_uid = 1 
gpu_sim_cycle = 24077
gpu_sim_insn = 1245376
gpu_ipc =      51.7247
gpu_tot_sim_cycle = 246861
gpu_tot_sim_insn = 1245376
gpu_tot_ipc =       5.0448
gpu_tot_issued_cta = 128
max_total_param_size = 0
gpu_stall_dramfull = 0
gpu_stall_icnt2sh    = 2885
partiton_reqs_in_parallel = 529694
partiton_reqs_in_parallel_total    = 0
partiton_level_parallism =      22.0000
partiton_level_parallism_total  =       2.1457
partiton_reqs_in_parallel_util = 529694
partiton_reqs_in_parallel_util_total    = 0
gpu_sim_cycle_parition_util = 24077
gpu_tot_sim_cycle_parition_util    = 0
partiton_level_parallism_util =      22.0000
partiton_level_parallism_util_total  =      22.0000
partiton_replys_in_parallel = 2220
partiton_replys_in_parallel_total    = 0
L2_BW  =       8.7395 GB/Sec
L2_BW_total  =       0.8524 GB/Sec
gpu_total_sim_rate=8895

========= Core cache stats =========
L1I_cache:
	L1I_total_cache_accesses = 22632
	L1I_total_cache_misses = 2778
	L1I_total_cache_miss_rate = 0.1227
	L1I_total_cache_pending_hits = 0
	L1I_total_cache_reservation_fails = 6846
L1D_cache:
	L1D_cache_core[0]: Access = 0, Miss = 0, Miss_rate = -nan, Pending_hits = 0, Reservation_fails = 0
	L1D_cache_core[1]: Access = 0, Miss = 0, Miss_rate = -nan, Pending_hits = 0, Reservation_fails = 0
	L1D_cache_core[2]: Access = 0, Miss = 0, Miss_rate = -nan, Pending_hits = 0, Reservation_fails = 0
	L1D_cache_core[3]: Access = 0, Miss = 0, Miss_rate = -nan, Pending_hits = 0, Reservation_fails = 0
	L1D_cache_core[4]: Access = 0, Miss = 0, Miss_rate = -nan, Pending_hits = 0, Reservation_fails = 0
	L1D_cache_core[5]: Access = 0, Miss = 0, Miss_rate = -nan, Pending_hits = 0, Reservation_fails = 0
	L1D_cache_core[6]: Access = 0, Miss = 0, Miss_rate = -nan, Pending_hits = 0, Reservation_fails = 0
	L1D_cache_core[7]: Access = 0, Miss = 0, Miss_rate = -nan, Pending_hits = 0, Reservation_fails = 0
	L1D_cache_core[8]: Access = 0, Miss = 0, Miss_rate = -nan, Pending_hits = 0, Reservation_fails = 0
	L1D_cache_core[9]: Access = 0, Miss = 0, Miss_rate = -nan, Pending_hits = 0, Reservation_fails = 0
	L1D_cache_core[10]: Access = 0, Miss = 0, Miss_rate = -nan, Pending_hits = 0, Reservation_fails = 0
	L1D_cache_core[11]: Access = 0, Miss = 0, Miss_rate = -nan, Pending_hits = 0, Reservation_fails = 0
	L1D_cache_core[12]: Access = 0, Miss = 0, Miss_rate = -nan, Pending_hits = 0, Reservation_fails = 0
	L1D_cache_core[13]: Access = 0, Miss = 0, Miss_rate = -nan, Pending_hits = 0, Reservation_fails = 0
	L1D_cache_core[14]: Access = 0, Miss = 0, Miss_rate = -nan, Pending_hits = 0, Reservation_fails = 0
	L1D_cache_core[15]: Access = 0, Miss = 0, Miss_rate = -nan, Pending_hits = 0, Reservation_fails = 0
	L1D_cache_core[16]: Access = 0, Miss = 0, Miss_rate = -nan, Pending_hits = 0, Reservation_fails = 0
	L1D_cache_core[17]: Access = 0, Miss = 0, Miss_rate = -nan, Pending_hits = 0, Reservation_fails = 0
	L1D_cache_core[18]: Access = 0, Miss = 0, Miss_rate = -nan, Pending_hits = 0, Reservation_fails = 0
	L1D_cache_core[19]: Access = 0, Miss = 0, Miss_rate = -nan, Pending_hits = 0, Reservation_fails = 0
	L1D_cache_core[20]: Access = 0, Miss = 0, Miss_rate = -nan, Pending_hits = 0, Reservation_fails = 0
	L1D_cache_core[21]: Access = 0, Miss = 0, Miss_rate = -nan, Pending_hits = 0, Reservation_fails = 0
	L1D_cache_core[22]: Access = 0, Miss = 0, Miss_rate = -nan, Pending_hits = 0, Reservation_fails = 0
	L1D_cache_core[23]: Access = 0, Miss = 0, Miss_rate = -nan, Pending_hits = 0, Reservation_fails = 0
	L1D_cache_core[24]: Access = 0, Miss = 0, Miss_rate = -nan, Pending_hits = 0, Reservation_fails = 0
	L1D_cache_core[25]: Access = 0, Miss = 0, Miss_rate = -nan, Pending_hits = 0, Reservation_fails = 0
	L1D_cache_core[26]: Access = 0, Miss = 0, Miss_rate = -nan, Pending_hits = 0, Reservation_fails = 0
	L1D_cache_core[27]: Access = 0, Miss = 0, Miss_rate = -nan, Pending_hits = 0, Reservation_fails = 0
	L1D_total_cache_accesses = 0
	L1D_total_cache_misses = 0
	L1D_total_cache_pending_hits = 0
	L1D_total_cache_reservation_fails = 0
	L1D_cache_data_port_util = 0.000
	L1D_cache_fill_port_util = 0.000
L1C_cache:
	L1C_total_cache_accesses = 14336
	L1C_total_cache_misses = 1792
	L1C_total_cache_miss_rate = 0.1250
	L1C_total_cache_pending_hits = 0
	L1C_total_cache_reservation_fails = 4886
L1T_cache:
	L1T_total_cache_accesses = 0
	L1T_total_cache_misses = 0
	L1T_total_cache_pending_hits = 0
	L1T_total_cache_reservation_fails = 0

Total_core_cache_stats:
	Total_core_cache_stats_breakdown[GLOBAL_ACC_R][HIT] = 0
	Total_core_cache_stats_breakdown[GLOBAL_ACC_R][HIT_RESERVED] = 0
	Total_core_cache_stats_breakdown[GLOBAL_ACC_R][MISS] = 0
	Total_core_cache_stats_breakdown[GLOBAL_ACC_R][RESERVATION_FAIL] = 0
	Total_core_cache_stats_breakdown[LOCAL_ACC_R][HIT] = 0
	Total_core_cache_stats_breakdown[LOCAL_ACC_R][HIT_RESERVED] = 0
	Total_core_cache_stats_breakdown[LOCAL_ACC_R][MISS] = 0
	Total_core_cache_stats_breakdown[LOCAL_ACC_R][RESERVATION_FAIL] = 0
	Total_core_cache_stats_breakdown[CONST_ACC_R][HIT] = 12544
	Total_core_cache_stats_breakdown[CONST_ACC_R][HIT_RESERVED] = 0
	Total_core_cache_stats_breakdown[CONST_ACC_R][MISS] = 1792
	Total_core_cache_stats_breakdown[CONST_ACC_R][RESERVATION_FAIL] = 4886
	Total_core_cache_stats_breakdown[TEXTURE_ACC_R][HIT] = 0
	Total_core_cache_stats_breakdown[TEXTURE_ACC_R][HIT_RESERVED] = 0
	Total_core_cache_stats_breakdown[TEXTURE_ACC_R][MISS] = 0
	Total_core_cache_stats_breakdown[TEXTURE_ACC_R][RESERVATION_FAIL] = 0
	Total_core_cache_stats_breakdown[GLOBAL_ACC_W][HIT] = 0
	Total_core_cache_stats_breakdown[GLOBAL_ACC_W][HIT_RESERVED] = 0
	Total_core_cache_stats_breakdown[GLOBAL_ACC_W][MISS] = 0
	Total_core_cache_stats_breakdown[GLOBAL_ACC_W][RESERVATION_FAIL] = 0
	Total_core_cache_stats_breakdown[LOCAL_ACC_W][HIT] = 0
	Total_core_cache_stats_breakdown[LOCAL_ACC_W][HIT_RESERVED] = 0
	Total_core_cache_stats_breakdown[LOCAL_ACC_W][MISS] = 0
	Total_core_cache_stats_breakdown[LOCAL_ACC_W][RESERVATION_FAIL] = 0
	Total_core_cache_stats_breakdown[L1_WRBK_ACC][HIT] = 0
	Total_core_cache_stats_breakdown[L1_WRBK_ACC][HIT_RESERVED] = 0
	Total_core_cache_stats_breakdown[L1_WRBK_ACC][MISS] = 0
	Total_core_cache_stats_breakdown[L1_WRBK_ACC][RESERVATION_FAIL] = 0
	Total_core_cache_stats_breakdown[L2_WRBK_ACC][HIT] = 0
	Total_core_cache_stats_breakdown[L2_WRBK_ACC][HIT_RESERVED] = 0
	Total_core_cache_stats_breakdown[L2_WRBK_ACC][MISS] = 0
	Total_core_cache_stats_breakdown[L2_WRBK_ACC][RESERVATION_FAIL] = 0
	Total_core_cache_stats_breakdown[INST_ACC_R][HIT] = 19854
	Total_core_cache_stats_breakdown[INST_ACC_R][HIT_RESERVED] = 0
	Total_core_cache_stats_breakdown[INST_ACC_R][MISS] = 2778
	Total_core_cache_stats_breakdown[INST_ACC_R][RESERVATION_FAIL] = 6846
	Total_core_cache_stats_breakdown[L1_WR_ALLOC_R][HIT] = 0
	Total_core_cache_stats_breakdown[L1_WR_ALLOC_R][HIT_RESERVED] = 0
	Total_core_cache_stats_breakdown[L1_WR_ALLOC_R][MISS] = 0
	Total_core_cache_stats_breakdown[L1_WR_ALLOC_R][RESERVATION_FAIL] = 0
	Total_core_cache_stats_breakdown[L2_WR_ALLOC_R][HIT] = 0
	Total_core_cache_stats_breakdown[L2_WR_ALLOC_R][HIT_RESERVED] = 0
	Total_core_cache_stats_breakdown[L2_WR_ALLOC_R][MISS] = 0
	Total_core_cache_stats_breakdown[L2_WR_ALLOC_R][RESERVATION_FAIL] = 0
	Total_core_cache_stats_breakdown[CONST_ACC_R][TOTAL_ACCESS] = 14336
	Total_core_cache_stats_breakdown[INST_ACC_R][TOTAL_ACCESS] = 22632
Shader 0 warp_id issue ditsribution:
warp_id:
0, 1, 2, 3, 4, 5, 6, 7, 8, 9, 10, 11, 12, 13, 14, 15, 16, 17, 18, 19, 20, 21, 22, 23, 24, 25, 26, 27, 28, 29, 30, 31, 32, 33, 34, 35, 36, 37, 38, 39, 40, 41, 42, 43, 44, 45, 46, 47, 48, 49, 50, 51, 52, 53, 54, 55, 56, 57, 58, 59, 60, 61, 62, 63, 
distro:
23, 23, 22, 23, 22, 23, 22, 23, 23, 23, 23, 23, 23, 23, 23, 23, 23, 23, 23, 23, 23, 23, 23, 23, 23, 23, 23, 23, 23, 23, 23, 23, 23, 23, 23, 23, 23, 23, 23, 23, 23, 23, 23, 23, 23, 23, 23, 23, 23, 23, 23, 23, 23, 23, 23, 23, 23, 23, 23, 23, 23, 23, 23, 23, 
gpgpu_n_tot_thrd_icount = 1317216
gpgpu_n_tot_w_icount = 41163
gpgpu_n_stall_shd_mem = 5424
gpgpu_n_mem_read_local = 0
gpgpu_n_mem_write_local = 0
gpgpu_n_mem_read_global = 2090
gpgpu_n_mem_write_global = 17
gpgpu_n_mem_texture = 0
gpgpu_n_mem_const = 28
gpgpu_n_load_insn  = 65578
gpgpu_n_store_insn = 17
gpgpu_n_shmem_insn = 0
gpgpu_n_tex_insn = 0
gpgpu_n_const_mem_insn = 0
gpgpu_n_param_mem_insn = 458752
gpgpu_n_shmem_bkconflict = 0
gpgpu_n_cache_bkconflict = 0
gpgpu_n_intrawarp_mshr_merge = 0
gpgpu_n_cmem_portconflict = 4886
gpgpu_stall_shd_mem[c_mem][bk_conf] = 4886
gpgpu_stall_shd_mem[c_mem][mshr_rc] = 0
gpgpu_stall_shd_mem[c_mem][icnt_rc] = 0
gpgpu_stall_shd_mem[c_mem][data_port_stall] = 0
gpgpu_stall_shd_mem[t_mem][mshr_rc] = 0
gpgpu_stall_shd_mem[t_mem][icnt_rc] = 0
gpgpu_stall_shd_mem[t_mem][data_port_stall] = 0
gpgpu_stall_shd_mem[s_mem][bk_conf] = 0
gpgpu_stall_shd_mem[gl_mem][bk_conf] = 0
gpgpu_stall_shd_mem[gl_mem][coal_stall] = 0
gpgpu_stall_shd_mem[gl_mem][data_port_stall] = 0
gpgpu_stall_shd_mem[g_mem_ld][mshr_rc] = 0
gpgpu_stall_shd_mem[g_mem_ld][icnt_rc] = 538
gpgpu_stall_shd_mem[g_mem_ld][wb_icnt_rc] = 0
gpgpu_stall_shd_mem[g_mem_ld][wb_rsrv_fail] = 0
gpgpu_stall_shd_mem[g_mem_st][mshr_rc] = 0
gpgpu_stall_shd_mem[g_mem_st][icnt_rc] = 0
gpgpu_stall_shd_mem[g_mem_st][wb_icnt_rc] = 0
gpgpu_stall_shd_mem[g_mem_st][wb_rsrv_fail] = 0
gpgpu_stall_shd_mem[l_mem_ld][mshr_rc] = 0
gpgpu_stall_shd_mem[l_mem_ld][icnt_rc] = 0
gpgpu_stall_shd_mem[l_mem_ld][wb_icnt_rc] = 0
gpgpu_stall_shd_mem[l_mem_ld][wb_rsrv_fail] = 0
gpgpu_stall_shd_mem[l_mem_st][mshr_rc] = 0
gpgpu_stall_shd_mem[l_mem_st][icnt_rc] = 0
gpgpu_stall_shd_mem[l_mem_ld][wb_icnt_rc] = 0
gpgpu_stall_shd_mem[l_mem_ld][wb_rsrv_fail] = 0
gpu_reg_bank_conflict_stalls = 0
Warp Occupancy Distribution:
Stall:16032	W0_Idle:43590	W0_Scoreboard:165891	W1:203	W2:0	W3:0	W4:0	W5:0	W6:0	W7:0	W8:0	W9:0	W10:0	W11:0	W12:0	W13:0	W14:0	W15:0	W16:0	W17:0	W18:0	W19:0	W20:0	W21:0	W22:0	W23:0	W24:0	W25:0	W26:0	W27:0	W28:0	W29:0	W30:0	W31:0	W32:40960
traffic_breakdown_coretomem[CONST_ACC_R] = 224 {8:28,}
traffic_breakdown_coretomem[GLOBAL_ACC_R] = 16720 {8:2090,}
traffic_breakdown_coretomem[GLOBAL_ACC_W] = 680 {40:17,}
traffic_breakdown_coretomem[INST_ACC_R] = 680 {8:85,}
traffic_breakdown_memtocore[CONST_ACC_R] = 2016 {72:28,}
traffic_breakdown_memtocore[GLOBAL_ACC_R] = 83600 {40:2090,}
traffic_breakdown_memtocore[GLOBAL_ACC_W] = 136 {8:17,}
traffic_breakdown_memtocore[INST_ACC_R] = 11560 {136:85,}
maxmrqlatency = 85 
maxdqlatency = 0 
maxmflatency = 6625 
averagemflatency = 2193 
max_icnt2mem_latency = 6390 
max_icnt2sh_latency = 246860 
mrq_lat_table:154 	32 	50 	97 	59 	118 	50 	0 	0 	0 	0 	0 	0 	0 	0 	0 	0 	0 	0 	0 	0 	0 	0 	0 	0 	0 	0 	0 	0 	0 	0 	0 	
dq_lat_table:0 	0 	0 	0 	0 	0 	0 	0 	0 	0 	0 	0 	0 	0 	0 	0 	0 	0 	0 	0 	0 	0 	0 	0 	0 	0 	0 	0 	0 	0 	0 	0 	
mf_lat_table:0 	0 	0 	0 	0 	0 	0 	64 	7 	0 	772 	1288 	4 	0 	0 	0 	0 	0 	0 	0 	0 	0 	0 	0 	0 	0 	0 	0 	0 	0 	0 	0 	
icnt2mem_lat_table:0 	0 	103 	23 	23 	0 	7 	0 	0 	536 	237 	1287 	4 	0 	0 	0 	0 	0 	0 	0 	0 	0 	0 	0 	
icnt2sh_lat_table:0 	0 	459 	1075 	566 	18 	0 	0 	0 	0 	0 	0 	0 	0 	0 	0 	0 	17 	0 	0 	0 	0 	0 	0 	
mf_lat_pw_table:0 	0 	0 	0 	0 	0 	0 	11 	1 	1 	2 	5 	2 	0 	0 	0 	0 	0 	0 	0 	0 	0 	0 	0 	0 	0 	0 	0 	0 	0 	0 	0 	
maximum concurrent accesses to same row:
dram[0]:         0         0         0         0         0         0         0         0         0         0         0         0         0         0         0         0 
dram[1]:         0         0         0         0         0         0         0         0         0         0         1         0         0         0         0         0 
dram[2]:         0         0         0         0         0        15         0         0         0         0         0         0         0         0         0         0 
dram[3]:         0         0         0         0         0         0         0         0         0         0         0         0         0         0         0         0 
dram[4]:         0         0         0         0         0         0         0         0         0         0         0         0         0         0         0         0 
dram[5]:         0         0         0         0         0         0         0         0         0         0         0         0         0         0         0         0 
dram[6]:         0         0         0         0         0         0         0         0         0         0         0         0         0         0         0         0 
dram[7]:         0         0         0         0         0         0         0         0         0         0         0         0         0         0         0         0 
dram[8]:         0         0         9         0         0         0         0         0         0         0         0         0         0         0         0         0 
dram[9]:         0         0         0         0         0         0         0         0         0         0         0         0         0         0         0         0 
dram[10]:         0         0         0         0         0         0         0         0         0         0         0         0         0         0         0         0 
maximum service time to same row:
dram[0]:         0         0      2007      2011      3725      3728         0         0         0         0         0         0         0         0         0         0 
dram[1]:         0         0      2007      2010      3726      3726         0         0         0     17005      4375     14429         0         0         0         0 
dram[2]:         0         0      2007      2011      3725     15337     17040         0     18014         0         0         0         0         0         0         0 
dram[3]:         0         0      2007      2011      3725      3726         0     15287     17005         0         0         0     22004         0         0         0 
dram[4]:         0         0      2007      2009      3725      3727     15288         0         0         0         0     13082         0         0       228       789 
dram[5]:         0         0      2007      2008      3725      3730     17002         0     16506         0         0         0     22007         0      4637      2266 
dram[6]:         0         0      2007      2008      3725      3727         0         0         0     13938     14794     17260         0         0         0     22007 
dram[7]:         0         0      2007      2008      3725      3730         0         0     10002         0         0         0         0         0         0         0 
dram[8]:         0         0     17055      2010      3725      3727         0         0         0         0     15650         0         0         0         0         0 
dram[9]:         0         0      2007      2011      3725      3730         0         0     12369         0         0         0         0         0         0         0 
dram[10]:         0         0      2007      2010      3725      3727     18446         0         0         0     14458         0         0         0         0     24064 
average row accesses per activate:
dram[0]:       inf      -nan  8.000000  8.000000 15.000000 15.000000      -nan      -nan      -nan      -nan      -nan      -nan      -nan      -nan      -nan      -nan 
dram[1]:      -nan      -nan  8.000000  8.000000 15.000000 15.000000      -nan      -nan      -nan  2.000000  1.000000  2.000000      -nan      -nan      -nan      -nan 
dram[2]:      -nan      -nan  8.000000  8.000000 15.000000  8.500000  2.000000      -nan  1.000000      -nan      -nan      -nan      -nan      -nan      -nan      -nan 
dram[3]:      -nan      -nan  9.000000  9.000000 15.000000 15.000000      -nan  4.000000  2.000000      -nan      -nan      -nan  2.000000      -nan      -nan      -nan 
dram[4]:      -nan      -nan  9.000000  9.000000 15.000000 15.000000  2.000000      -nan      -nan      -nan      -nan  1.000000      -nan      -nan  1.000000  1.000000 
dram[5]:      -nan      -nan  9.000000  9.000000 15.000000 15.000000  2.000000      -nan  1.000000      -nan      -nan      -nan  2.000000      -nan  1.000000  1.000000 
dram[6]:      -nan      -nan  9.000000  9.000000 14.000000 14.000000      -nan      -nan      -nan  1.000000  1.000000  1.000000      -nan      -nan      -nan  2.000000 
dram[7]:      -nan      -nan  9.000000  9.000000 14.000000 14.000000      -nan      -nan  1.000000      -nan      -nan      -nan      -nan      -nan      -nan      -nan 
dram[8]:      -nan      -nan  5.500000  9.000000 14.000000 14.000000      -nan      -nan      -nan      -nan  1.000000      -nan      -nan      -nan      -nan      -nan 
dram[9]:      -nan      -nan  9.000000  9.000000 14.000000 14.000000      -nan      -nan  1.000000      -nan      -nan      -nan      -nan      -nan      -nan      -nan 
dram[10]:      -nan      -nan  9.000000  9.000000 14.000000 14.000000  2.000000      -nan      -nan      -nan  2.000000      -nan      -nan      -nan      -nan  2.000000 
average row locality = 560/74 = 7.567567
number of total memory accesses made:
dram[0]:         0         0         0         0         0         0         0         0         0         0         0         0         0         0         0         0 
dram[1]:         0         0         0         0         0         0         0         0         0         0         0         0         0         0         0         0 
dram[2]:         0         0         0         0         0         0         0         0         0         0         0         0         0         0         0         0 
dram[3]:         0         0         0         0         0         0         0         0         0         0         0         0         0         0         0         0 
dram[4]:         0         0         0         0         0         0         0         0         0         0         0         0         0         0         0         0 
dram[5]:         0         0         0         0         0         0         0         0         0         0         0         0         0         0         0         0 
dram[6]:         0         0         0         0         0         0         0         0         0         0         0         0         0         0         0         0 
dram[7]:         0         0         0         0         0         0         0         0         0         0         0         0         0         0         0         0 
dram[8]:         0         0         0         0         0         0         0         0         0         0         0         0         0         0         0         0 
dram[9]:         0         0         0         0         0         0         0         0         0         0         0         0         0         0         0         0 
dram[10]:         0         0         0         0         0         0         0         0         0         0         0         0         0         0         0         0 
total accesses: 0
min_bank_accesses = 0!
min_chip_accesses = 0!
number of total read accesses:
dram[0]:         1         0         8         8        15        15         0         0         0         0         0         0         0         0         0         0 
dram[1]:         0         0         8         8        15        15         0         0         0         1         2         1         0         0         0         0 
dram[2]:         0         0         8         8        15        16         1         0         1         0         0         0         0         0         0         0 
dram[3]:         0         0         9         9        15        15         0         2         1         0         0         0         1         0         0         0 
dram[4]:         0         0         9         9        15        15         1         0         0         0         0         1         0         0         1         1 
dram[5]:         0         0         9         9        15        15         1         0         1         0         0         0         1         0         1         1 
dram[6]:         0         0         9         9        14        14         0         0         0         1         1         1         0         0         0         1 
dram[7]:         0         0         9         9        14        14         0         0         1         0         0         0         0         0         0         0 
dram[8]:         0         0        10         9        14        14         0         0         0         0         1         0         0         0         0         0 
dram[9]:         0         0         9         9        14        14         0         0         1         0         0         0         0         0         0         0 
dram[10]:         0         0         9         9        14        14         1         0         0         0         1         0         0         0         0         1 
total reads: 544
min_bank_accesses = 0!
chip skew: 53/47 = 1.13
number of total write accesses:
dram[0]:         0         0         0         0         0         0         0         0         0         0         0         0         0         0         0         0 
dram[1]:         0         0         0         0         0         0         0         0         0         1         0         1         0         0         0         0 
dram[2]:         0         0         0         0         0         1         1         0         0         0         0         0         0         0         0         0 
dram[3]:         0         0         0         0         0         0         0         2         1         0         0         0         1         0         0         0 
dram[4]:         0         0         0         0         0         0         1         0         0         0         0         0         0         0         0         0 
dram[5]:         0         0         0         0         0         0         1         0         0         0         0         0         1         0         0         0 
dram[6]:         0         0         0         0         0         0         0         0         0         0         0         0         0         0         0         1 
dram[7]:         0         0         0         0         0         0         0         0         0         0         0         0         0         0         0         0 
dram[8]:         0         0         1         0         0         0         0         0         0         0         0         0         0         0         0         0 
dram[9]:         0         0         0         0         0         0         0         0         0         0         0         0         0         0         0         0 
dram[10]:         0         0         0         0         0         0         1         0         0         0         1         0         0         0         0         1 
total reads: 16
min_bank_accesses = 0!
min_chip_accesses = 0!
average mf latency per bank:
dram[0]:       6678    none        6383      6434     10121     10319    none      none      none      none      none      none      none      none      none      none  
dram[1]:     none      none        7229      7293     10172     10376    none      none      none        1865      3866      1012    none      none      none      none  
dram[2]:     none      none        7264      7322     10190      9482       170    none         250    none      none      none      none      none      none      none  
dram[3]:     none      none        7013      7056     10175     10280    none         347      1009    none      none      none        1905    none      none      none  
dram[4]:     none      none        6957      7033     10195     10311      1434    none      none      none      none         352    none      none           0         0
dram[5]:     none      none        6961      7029     10200     10317       579    none         352    none      none      none        2660    none           0         0
dram[6]:     none      none        6963      7034     10498     10659    none      none      none         352       352       250    none      none      none        3089
dram[7]:     none      none        6962      7022     10043     10201    none      none        2894    none      none      none      none      none      none      none  
dram[8]:     none      none        6076      7009     10045     10197    none      none      none      none         352    none      none      none      none      none  
dram[9]:     none      none        6953      7015     10082     10199    none      none        3264    none      none      none      none      none      none      none  
dram[10]:     none      none        6950      7002     10061     10190       119    none      none      none         170    none      none      none      none        3312
maximum mf latency per bank:
dram[0]:        252         0      2880      2884      2913      2965         0         0         0         0         0         0         0         0         0         0
dram[1]:          0         0      2895      2916      2917      2980         0         0         0      3730      2325      2024         0         0         0         0
dram[2]:          0         0      2909      2915      2939      5809       341         0       250         0         0         0         0         0         0         0
dram[3]:          0         0      2892      2901      2970      2987         0      1155      2019         0         0         0      3811         0         0         0
dram[4]:          0         0      2891      2906      2949      2997      2869         0         0         0         0       352         0         0         0         0
dram[5]:          0         0      2887      2899      2954      3002      1159         0       352         0         0         0      5321         0         0         0
dram[6]:          0         0      2891      2897      2920      2975         0         0         0       352       352       250         0         0         0      6178
dram[7]:          0         0      2886      2896      2919      2959         0         0      2894         0         0         0         0         0         0         0
dram[8]:          0         0      4095      2894      2915      2969         0         0         0         0       352         0         0         0         0         0
dram[9]:          0         0      2882      2894      2930      2964         0         0      2354         0         0         0         0         0         0         0
dram[10]:          0         0      2883      2891      2914      2953       239         0         0         0       341         0         0         0         0      6625
Memory Partition 0: 
Cache L2_bank_000:
MSHR contents

Cache L2_bank_001:
MSHR contents

In Dram Latency Queue (total = 0): 
DRAM[0]: 16 bks, busW=4 BL=8 CL=12, tRRD=2 tCCD=6, tRCD=12 tRAS=28 tRP=12 tRC=40
n_cmd=44706 n_nop=44513 n_act=5 n_pre=0 n_req=47 n_rd=188 n_write=0 bw_util=0.008411
n_activity=440 dram_eff=0.8545
bk0: 4a 44688i bk1: 0a 44707i bk2: 32a 44633i bk3: 32a 44583i bk4: 60a 44554i bk5: 60a 44443i bk6: 0a 44704i bk7: 0a 44705i bk8: 0a 44705i bk9: 0a 44705i bk10: 0a 44706i bk11: 0a 44706i bk12: 0a 44706i bk13: 0a 44706i bk14: 0a 44706i bk15: 0a 44706i 
dram_util_bins: 0 0 0 0 0 0 0 0 0 0
dram_eff_bins: 0 0 0 0 0 0 0 0 0 0
mrqq: max=13 avg=0.0459446
Memory Partition 1: 
Cache L2_bank_002:
MSHR contents

Cache L2_bank_003:
MSHR contents

In Dram Latency Queue (total = 0): 
DRAM[1]: 16 bks, busW=4 BL=8 CL=12, tRRD=2 tCCD=6, tRCD=12 tRAS=28 tRP=12 tRC=40
n_cmd=44706 n_nop=44495 n_act=8 n_pre=1 n_req=52 n_rd=200 n_write=2 bw_util=0.009037
n_activity=572 dram_eff=0.7063
bk0: 0a 44707i bk1: 0a 44708i bk2: 32a 44632i bk3: 32a 44576i bk4: 60a 44534i bk5: 60a 44424i bk6: 0a 44707i bk7: 0a 44707i bk8: 0a 44707i bk9: 4a 44681i bk10: 8a 44655i bk11: 4a 44678i bk12: 0a 44704i bk13: 0a 44704i bk14: 0a 44705i bk15: 0a 44705i 
dram_util_bins: 0 0 0 0 0 0 0 0 0 0
dram_eff_bins: 0 0 0 0 0 0 0 0 0 0
mrqq: max=13 avg=0.052342
Memory Partition 2: 
Cache L2_bank_004:
MSHR contents

Cache L2_bank_005:
MSHR contents

In Dram Latency Queue (total = 0): 
DRAM[2]: 16 bks, busW=4 BL=8 CL=12, tRRD=2 tCCD=6, tRCD=12 tRAS=28 tRP=12 tRC=40
n_cmd=44706 n_nop=44500 n_act=7 n_pre=1 n_req=51 n_rd=196 n_write=2 bw_util=0.008858
n_activity=532 dram_eff=0.7444
bk0: 0a 44707i bk1: 0a 44708i bk2: 32a 44633i bk3: 32a 44578i bk4: 60a 44536i bk5: 64a 44388i bk6: 4a 44679i bk7: 0a 44704i bk8: 4a 44685i bk9: 0a 44704i bk10: 0a 44705i bk11: 0a 44706i bk12: 0a 44706i bk13: 0a 44706i bk14: 0a 44706i bk15: 0a 44707i 
dram_util_bins: 0 0 0 0 0 0 0 0 0 0
dram_eff_bins: 0 0 0 0 0 0 0 0 0 0
mrqq: max=13 avg=0.0493446
Memory Partition 3: 
Cache L2_bank_006:
MSHR contents

Cache L2_bank_007:
MSHR contents

In Dram Latency Queue (total = 0): 
DRAM[3]: 16 bks, busW=4 BL=8 CL=12, tRRD=2 tCCD=6, tRCD=12 tRAS=28 tRP=12 tRC=40
n_cmd=44706 n_nop=44487 n_act=7 n_pre=0 n_req=56 n_rd=208 n_write=4 bw_util=0.009484
n_activity=565 dram_eff=0.7504
bk0: 0a 44707i bk1: 0a 44708i bk2: 36a 44624i bk3: 36a 44568i bk4: 60a 44537i bk5: 60a 44423i bk6: 0a 44705i bk7: 8a 44662i bk8: 4a 44679i bk9: 0a 44703i bk10: 0a 44706i bk11: 0a 44706i bk12: 4a 44681i bk13: 0a 44706i bk14: 0a 44706i bk15: 0a 44706i 
dram_util_bins: 0 0 0 0 0 0 0 0 0 0
dram_eff_bins: 0 0 0 0 0 0 0 0 0 0
mrqq: max=11 avg=0.0442446
Memory Partition 4: 
Cache L2_bank_008:
MSHR contents

Cache L2_bank_009:
MSHR contents

In Dram Latency Queue (total = 0): 
DRAM[4]: 16 bks, busW=4 BL=8 CL=12, tRRD=2 tCCD=6, tRCD=12 tRAS=28 tRP=12 tRC=40
n_cmd=44706 n_nop=44489 n_act=8 n_pre=0 n_req=53 n_rd=208 n_write=1 bw_util=0.00935
n_activity=576 dram_eff=0.7257
bk0: 0a 44705i bk1: 0a 44709i bk2: 36a 44626i bk3: 36a 44562i bk4: 60a 44537i bk5: 60a 44426i bk6: 4a 44679i bk7: 0a 44705i bk8: 0a 44705i bk9: 0a 44705i bk10: 0a 44706i bk11: 4a 44686i bk12: 0a 44704i bk13: 0a 44706i bk14: 4a 44686i bk15: 4a 44685i 
dram_util_bins: 0 0 0 0 0 0 0 0 0 0
dram_eff_bins: 0 0 0 0 0 0 0 0 0 0
mrqq: max=11 avg=0.0464367
Memory Partition 5: 
Cache L2_bank_010:
MSHR contents

Cache L2_bank_011:
MSHR contents

In Dram Latency Queue (total = 0): 
DRAM[5]: 16 bks, busW=4 BL=8 CL=12, tRRD=2 tCCD=6, tRCD=12 tRAS=28 tRP=12 tRC=40
n_cmd=44706 n_nop=44483 n_act=9 n_pre=0 n_req=55 n_rd=212 n_write=2 bw_util=0.009574
n_activity=616 dram_eff=0.6948
bk0: 0a 44703i bk1: 0a 44706i bk2: 36a 44624i bk3: 36a 44562i bk4: 60a 44541i bk5: 60a 44432i bk6: 4a 44680i bk7: 0a 44704i bk8: 4a 44687i bk9: 0a 44706i bk10: 0a 44707i bk11: 0a 44707i bk12: 4a 44681i bk13: 0a 44705i bk14: 4a 44685i bk15: 4a 44684i 
dram_util_bins: 0 0 0 0 0 0 0 0 0 0
dram_eff_bins: 0 0 0 0 0 0 0 0 0 0
mrqq: max=13 avg=0.0512683
Memory Partition 6: 
Cache L2_bank_012:
MSHR contents

Cache L2_bank_013:
MSHR contents

In Dram Latency Queue (total = 0): 
DRAM[6]: 16 bks, busW=4 BL=8 CL=12, tRRD=2 tCCD=6, tRCD=12 tRAS=28 tRP=12 tRC=40
n_cmd=44706 n_nop=44497 n_act=8 n_pre=0 n_req=51 n_rd=200 n_write=1 bw_util=0.008992
n_activity=560 dram_eff=0.7179
bk0: 0a 44706i bk1: 0a 44707i bk2: 36a 44623i bk3: 36a 44566i bk4: 56a 44541i bk5: 56a 44442i bk6: 0a 44705i bk7: 0a 44706i bk8: 0a 44706i bk9: 4a 44686i bk10: 4a 44686i bk11: 4a 44686i bk12: 0a 44705i bk13: 0a 44706i bk14: 0a 44706i bk15: 4a 44681i 
dram_util_bins: 0 0 0 0 0 0 0 0 0 0
dram_eff_bins: 0 0 0 0 0 0 0 0 0 0
mrqq: max=12 avg=0.0454749
Memory Partition 7: 
Cache L2_bank_014:
MSHR contents

Cache L2_bank_015:
MSHR contents

In Dram Latency Queue (total = 0): 
DRAM[7]: 16 bks, busW=4 BL=8 CL=12, tRRD=2 tCCD=6, tRCD=12 tRAS=28 tRP=12 tRC=40
n_cmd=44706 n_nop=44513 n_act=5 n_pre=0 n_req=47 n_rd=188 n_write=0 bw_util=0.008411
n_activity=440 dram_eff=0.8545
bk0: 0a 44707i bk1: 0a 44708i bk2: 36a 44625i bk3: 36a 44561i bk4: 56a 44545i bk5: 56a 44448i bk6: 0a 44705i bk7: 0a 44705i bk8: 4a 44686i bk9: 0a 44704i bk10: 0a 44705i bk11: 0a 44705i bk12: 0a 44705i bk13: 0a 44705i bk14: 0a 44706i bk15: 0a 44706i 
dram_util_bins: 0 0 0 0 0 0 0 0 0 0
dram_eff_bins: 0 0 0 0 0 0 0 0 0 0
mrqq: max=10 avg=0.0411802
Memory Partition 8: 
Cache L2_bank_016:
MSHR contents

Cache L2_bank_017:
MSHR contents

In Dram Latency Queue (total = 0): 
DRAM[8]: 16 bks, busW=4 BL=8 CL=12, tRRD=2 tCCD=6, tRCD=12 tRAS=28 tRP=12 tRC=40
n_cmd=44706 n_nop=44506 n_act=6 n_pre=1 n_req=49 n_rd=192 n_write=1 bw_util=0.008634
n_activity=492 dram_eff=0.7846
bk0: 0a 44707i bk1: 0a 44709i bk2: 40a 44587i bk3: 36a 44569i bk4: 56a 44548i bk5: 56a 44442i bk6: 0a 44704i bk7: 0a 44705i bk8: 0a 44705i bk9: 0a 44705i bk10: 4a 44687i bk11: 0a 44705i bk12: 0a 44706i bk13: 0a 44706i bk14: 0a 44706i bk15: 0a 44706i 
dram_util_bins: 0 0 0 0 0 0 0 0 0 0
dram_eff_bins: 0 0 0 0 0 0 0 0 0 0
mrqq: max=11 avg=0.0378696
Memory Partition 9: 
Cache L2_bank_018:
MSHR contents

Cache L2_bank_019:
MSHR contents

In Dram Latency Queue (total = 0): 
DRAM[9]: 16 bks, busW=4 BL=8 CL=12, tRRD=2 tCCD=6, tRCD=12 tRAS=28 tRP=12 tRC=40
n_cmd=44706 n_nop=44513 n_act=5 n_pre=0 n_req=47 n_rd=188 n_write=0 bw_util=0.008411
n_activity=440 dram_eff=0.8545
bk0: 0a 44707i bk1: 0a 44708i bk2: 36a 44625i bk3: 36a 44568i bk4: 56a 44552i bk5: 56a 44447i bk6: 0a 44705i bk7: 0a 44705i bk8: 4a 44686i bk9: 0a 44704i bk10: 0a 44705i bk11: 0a 44705i bk12: 0a 44705i bk13: 0a 44705i bk14: 0a 44706i bk15: 0a 44706i 
dram_util_bins: 0 0 0 0 0 0 0 0 0 0
dram_eff_bins: 0 0 0 0 0 0 0 0 0 0
mrqq: max=10 avg=0.0404867
Memory Partition 10: 
Cache L2_bank_020:
MSHR contents

Cache L2_bank_021:
MSHR contents
MSHR: tag=0xc02d3280, atomic=0 1 entries : 0x7faab6fbee40 :  mf: uid= 50823, sid01:w00, part=10, addr=0xc02d32a0, load , size=32, unknown  status = IN_PARTITION_DRAM (246860), 

In Dram Latency Queue (total = 0): 
DRAM[10]: 16 bks, busW=4 BL=8 CL=12, tRRD=2 tCCD=6, tRCD=12 tRAS=28 tRP=12 tRC=40
n_cmd=44706 n_nop=44501 n_act=7 n_pre=0 n_req=52 n_rd=195 n_write=3 bw_util=0.008858
n_activity=503 dram_eff=0.7873
bk0: 0a 44705i bk1: 0a 44708i bk2: 36a 44624i bk3: 36a 44570i bk4: 56a 44545i bk5: 56a 44442i bk6: 4a 44679i bk7: 0a 44705i bk8: 0a 44705i bk9: 0a 44706i bk10: 4a 44681i bk11: 0a 44705i bk12: 0a 44705i bk13: 0a 44706i bk14: 0a 44706i bk15: 3a 44682i 
dram_util_bins: 0 0 0 0 0 0 0 0 0 0
dram_eff_bins: 0 0 0 0 0 0 0 0 0 0
mrqq: max=10 avg=0.0393907

========= L2 cache stats =========
L2_cache_bank[0]: Access = 120, Miss = 24, Miss_rate = 0.200, Pending_hits = 96, Reservation_fails = 0
L2_cache_bank[1]: Access = 92, Miss = 23, Miss_rate = 0.250, Pending_hits = 69, Reservation_fails = 0
L2_cache_bank[2]: Access = 118, Miss = 25, Miss_rate = 0.212, Pending_hits = 69, Reservation_fails = 0
L2_cache_bank[3]: Access = 94, Miss = 25, Miss_rate = 0.266, Pending_hits = 69, Reservation_fails = 0
L2_cache_bank[4]: Access = 94, Miss = 25, Miss_rate = 0.266, Pending_hits = 69, Reservation_fails = 0
L2_cache_bank[5]: Access = 93, Miss = 24, Miss_rate = 0.258, Pending_hits = 69, Reservation_fails = 0
L2_cache_bank[6]: Access = 99, Miss = 26, Miss_rate = 0.263, Pending_hits = 72, Reservation_fails = 0
L2_cache_bank[7]: Access = 98, Miss = 26, Miss_rate = 0.265, Pending_hits = 72, Reservation_fails = 0
L2_cache_bank[8]: Access = 125, Miss = 26, Miss_rate = 0.208, Pending_hits = 99, Reservation_fails = 0
L2_cache_bank[9]: Access = 125, Miss = 26, Miss_rate = 0.208, Pending_hits = 99, Reservation_fails = 0
L2_cache_bank[10]: Access = 100, Miss = 28, Miss_rate = 0.280, Pending_hits = 72, Reservation_fails = 0
L2_cache_bank[11]: Access = 124, Miss = 25, Miss_rate = 0.202, Pending_hits = 99, Reservation_fails = 0
L2_cache_bank[12]: Access = 93, Miss = 24, Miss_rate = 0.258, Pending_hits = 69, Reservation_fails = 0
L2_cache_bank[13]: Access = 95, Miss = 26, Miss_rate = 0.274, Pending_hits = 69, Reservation_fails = 0
L2_cache_bank[14]: Access = 93, Miss = 24, Miss_rate = 0.258, Pending_hits = 69, Reservation_fails = 0
L2_cache_bank[15]: Access = 92, Miss = 23, Miss_rate = 0.250, Pending_hits = 69, Reservation_fails = 0
L2_cache_bank[16]: Access = 94, Miss = 25, Miss_rate = 0.266, Pending_hits = 69, Reservation_fails = 0
L2_cache_bank[17]: Access = 92, Miss = 23, Miss_rate = 0.250, Pending_hits = 69, Reservation_fails = 0
L2_cache_bank[18]: Access = 100, Miss = 24, Miss_rate = 0.240, Pending_hits = 69, Reservation_fails = 0
L2_cache_bank[19]: Access = 92, Miss = 23, Miss_rate = 0.250, Pending_hits = 69, Reservation_fails = 0
L2_cache_bank[20]: Access = 94, Miss = 25, Miss_rate = 0.266, Pending_hits = 69, Reservation_fails = 0
L2_cache_bank[21]: Access = 93, Miss = 24, Miss_rate = 0.258, Pending_hits = 69, Reservation_fails = 0
L2_total_cache_accesses = 2220
L2_total_cache_misses = 544
L2_total_cache_miss_rate = 0.2450
L2_total_cache_pending_hits = 1644
L2_total_cache_reservation_fails = 0
L2_total_cache_breakdown:
	L2_cache_stats_breakdown[GLOBAL_ACC_R][HIT] = 31
	L2_cache_stats_breakdown[GLOBAL_ACC_R][HIT_RESERVED] = 1536
	L2_cache_stats_breakdown[GLOBAL_ACC_R][MISS] = 523
	L2_cache_stats_breakdown[GLOBAL_ACC_R][RESERVATION_FAIL] = 0
	L2_cache_stats_breakdown[LOCAL_ACC_R][HIT] = 0
	L2_cache_stats_breakdown[LOCAL_ACC_R][HIT_RESERVED] = 0
	L2_cache_stats_breakdown[LOCAL_ACC_R][MISS] = 0
	L2_cache_stats_breakdown[LOCAL_ACC_R][RESERVATION_FAIL] = 0
	L2_cache_stats_breakdown[CONST_ACC_R][HIT] = 0
	L2_cache_stats_breakdown[CONST_ACC_R][HIT_RESERVED] = 27
	L2_cache_stats_breakdown[CONST_ACC_R][MISS] = 1
	L2_cache_stats_breakdown[CONST_ACC_R][RESERVATION_FAIL] = 0
	L2_cache_stats_breakdown[TEXTURE_ACC_R][HIT] = 0
	L2_cache_stats_breakdown[TEXTURE_ACC_R][HIT_RESERVED] = 0
	L2_cache_stats_breakdown[TEXTURE_ACC_R][MISS] = 0
	L2_cache_stats_breakdown[TEXTURE_ACC_R][RESERVATION_FAIL] = 0
	L2_cache_stats_breakdown[GLOBAL_ACC_W][HIT] = 1
	L2_cache_stats_breakdown[GLOBAL_ACC_W][HIT_RESERVED] = 0
	L2_cache_stats_breakdown[GLOBAL_ACC_W][MISS] = 16
	L2_cache_stats_breakdown[GLOBAL_ACC_W][RESERVATION_FAIL] = 0
	L2_cache_stats_breakdown[LOCAL_ACC_W][HIT] = 0
	L2_cache_stats_breakdown[LOCAL_ACC_W][HIT_RESERVED] = 0
	L2_cache_stats_breakdown[LOCAL_ACC_W][MISS] = 0
	L2_cache_stats_breakdown[LOCAL_ACC_W][RESERVATION_FAIL] = 0
	L2_cache_stats_breakdown[L1_WRBK_ACC][HIT] = 0
	L2_cache_stats_breakdown[L1_WRBK_ACC][HIT_RESERVED] = 0
	L2_cache_stats_breakdown[L1_WRBK_ACC][MISS] = 0
	L2_cache_stats_breakdown[L1_WRBK_ACC][RESERVATION_FAIL] = 0
	L2_cache_stats_breakdown[L2_WRBK_ACC][HIT] = 0
	L2_cache_stats_breakdown[L2_WRBK_ACC][HIT_RESERVED] = 0
	L2_cache_stats_breakdown[L2_WRBK_ACC][MISS] = 0
	L2_cache_stats_breakdown[L2_WRBK_ACC][RESERVATION_FAIL] = 0
	L2_cache_stats_breakdown[INST_ACC_R][HIT] = 0
	L2_cache_stats_breakdown[INST_ACC_R][HIT_RESERVED] = 81
	L2_cache_stats_breakdown[INST_ACC_R][MISS] = 4
	L2_cache_stats_breakdown[INST_ACC_R][RESERVATION_FAIL] = 0
	L2_cache_stats_breakdown[L1_WR_ALLOC_R][HIT] = 0
	L2_cache_stats_breakdown[L1_WR_ALLOC_R][HIT_RESERVED] = 0
	L2_cache_stats_breakdown[L1_WR_ALLOC_R][MISS] = 0
	L2_cache_stats_breakdown[L1_WR_ALLOC_R][RESERVATION_FAIL] = 0
	L2_cache_stats_breakdown[L2_WR_ALLOC_R][HIT] = 0
	L2_cache_stats_breakdown[L2_WR_ALLOC_R][HIT_RESERVED] = 0
	L2_cache_stats_breakdown[L2_WR_ALLOC_R][MISS] = 0
	L2_cache_stats_breakdown[L2_WR_ALLOC_R][RESERVATION_FAIL] = 0
	L2_cache_stats_breakdown[GLOBAL_ACC_R][TOTAL_ACCESS] = 2090
	L2_cache_stats_breakdown[CONST_ACC_R][TOTAL_ACCESS] = 28
	L2_cache_stats_breakdown[GLOBAL_ACC_W][TOTAL_ACCESS] = 17
	L2_cache_stats_breakdown[INST_ACC_R][TOTAL_ACCESS] = 85
L2_cache_data_port_util = 0.000
L2_cache_fill_port_util = 0.004

icnt_total_pkts_mem_to_simt=4706
icnt_total_pkts_simt_to_mem=2237
LD_mem_lat_dist  0 0 0 0 0 0 0 0 0 0 0 0 0 0 0 0 0 0 0 0 0 0 0 0 0 0 0
ST_mem_lat_dist  0 0 0 0 0 0 0 0 0 0 0 0 0 0 0 0 0 0 0 0 0 0 0 0 0 0 0
----------------------------Interconnect-DETAILS--------------------------------
Class 0:
Packet latency average = 30.6809
	minimum = 6
	maximum = 110
Network latency average = 20.1252
	minimum = 6
	maximum = 61
Slowest packet = 27
Flit latency average = 17.5912
	minimum = 6
	maximum = 61
Slowest flit = 2916
Fragmentation average = 0
	minimum = 0
	maximum = 0
Injected packet rate average = 0.00184416
	minimum = 0.00141219 (at node 0)
	maximum = 0.00265825 (at node 1)
Accepted packet rate average = 0.00184416
	minimum = 0.00141219 (at node 0)
	maximum = 0.00265825 (at node 1)
Injected flit rate average = 0.00288378
	minimum = 0.00141219 (at node 0)
	maximum = 0.00693637 (at node 37)
Accepted flit rate average= 0.00288378
	minimum = 0.00191062 (at node 29)
	maximum = 0.00523343 (at node 1)
Injected packet length average = 1.56374
Accepted packet length average = 1.56374
Total in-flight flits = 0 (0 measured)
====== Overall Traffic Statistics ======
====== Traffic class 0 ======
Packet latency average = 30.6809 (1 samples)
	minimum = 6 (1 samples)
	maximum = 110 (1 samples)
Network latency average = 20.1252 (1 samples)
	minimum = 6 (1 samples)
	maximum = 61 (1 samples)
Flit latency average = 17.5912 (1 samples)
	minimum = 6 (1 samples)
	maximum = 61 (1 samples)
Fragmentation average = 0 (1 samples)
	minimum = 0 (1 samples)
	maximum = 0 (1 samples)
Injected packet rate average = 0.00184416 (1 samples)
	minimum = 0.00141219 (1 samples)
	maximum = 0.00265825 (1 samples)
Accepted packet rate average = 0.00184416 (1 samples)
	minimum = 0.00141219 (1 samples)
	maximum = 0.00265825 (1 samples)
Injected flit rate average = 0.00288378 (1 samples)
	minimum = 0.00141219 (1 samples)
	maximum = 0.00693637 (1 samples)
Accepted flit rate average = 0.00288378 (1 samples)
	minimum = 0.00191062 (1 samples)
	maximum = 0.00523343 (1 samples)
Injected packet size average = 1.56374 (1 samples)
Accepted packet size average = 1.56374 (1 samples)
Hops average = 1 (1 samples)
----------------------------END-of-Interconnect-DETAILS-------------------------


gpgpu_simulation_time = 0 days, 0 hrs, 2 min, 20 sec (140 sec)
gpgpu_simulation_rate = 8895 (inst/sec)
gpgpu_simulation_rate = 1763 (cycle/sec)

GPGPU-Sim PTX: cudaLaunch for 0x0x401649 (mode=performance simulation) on stream 0
GPGPU-Sim PTX: pushing kernel '_Z7Kernel2PbS_S_S_i' to stream 0, gridDim= (128,1,1) blockDim = (512,1,1) 
GPGPU-Sim uArch: Shader 18 bind to kernel 2 '_Z7Kernel2PbS_S_S_i'
GPGPU-Sim uArch: CTA/core = 4, limited by: threads
GPGPU-Sim uArch: Shader 19 bind to kernel 2 '_Z7Kernel2PbS_S_S_i'
GPGPU-Sim uArch: Shader 20 bind to kernel 2 '_Z7Kernel2PbS_S_S_i'
GPGPU-Sim uArch: Shader 21 bind to kernel 2 '_Z7Kernel2PbS_S_S_i'
GPGPU-Sim uArch: Shader 22 bind to kernel 2 '_Z7Kernel2PbS_S_S_i'
GPGPU-Sim uArch: Shader 23 bind to kernel 2 '_Z7Kernel2PbS_S_S_i'
GPGPU-Sim uArch: Shader 24 bind to kernel 2 '_Z7Kernel2PbS_S_S_i'
GPGPU-Sim uArch: Shader 25 bind to kernel 2 '_Z7Kernel2PbS_S_S_i'
GPGPU-Sim uArch: Shader 26 bind to kernel 2 '_Z7Kernel2PbS_S_S_i'
GPGPU-Sim uArch: Shader 27 bind to kernel 2 '_Z7Kernel2PbS_S_S_i'
GPGPU-Sim uArch: Shader 0 bind to kernel 2 '_Z7Kernel2PbS_S_S_i'
GPGPU-Sim uArch: Shader 1 bind to kernel 2 '_Z7Kernel2PbS_S_S_i'
GPGPU-Sim uArch: Shader 2 bind to kernel 2 '_Z7Kernel2PbS_S_S_i'
GPGPU-Sim uArch: Shader 3 bind to kernel 2 '_Z7Kernel2PbS_S_S_i'
GPGPU-Sim uArch: Shader 4 bind to kernel 2 '_Z7Kernel2PbS_S_S_i'
GPGPU-Sim uArch: Shader 5 bind to kernel 2 '_Z7Kernel2PbS_S_S_i'
GPGPU-Sim uArch: Shader 6 bind to kernel 2 '_Z7Kernel2PbS_S_S_i'
GPGPU-Sim uArch: Shader 7 bind to kernel 2 '_Z7Kernel2PbS_S_S_i'
GPGPU-Sim uArch: Shader 8 bind to kernel 2 '_Z7Kernel2PbS_S_S_i'
GPGPU-Sim uArch: Shader 9 bind to kernel 2 '_Z7Kernel2PbS_S_S_i'
GPGPU-Sim uArch: Shader 10 bind to kernel 2 '_Z7Kernel2PbS_S_S_i'
GPGPU-Sim uArch: Shader 11 bind to kernel 2 '_Z7Kernel2PbS_S_S_i'
GPGPU-Sim uArch: Shader 12 bind to kernel 2 '_Z7Kernel2PbS_S_S_i'
GPGPU-Sim uArch: Shader 13 bind to kernel 2 '_Z7Kernel2PbS_S_S_i'
GPGPU-Sim uArch: Shader 14 bind to kernel 2 '_Z7Kernel2PbS_S_S_i'
GPGPU-Sim uArch: Shader 15 bind to kernel 2 '_Z7Kernel2PbS_S_S_i'
GPGPU-Sim uArch: Shader 16 bind to kernel 2 '_Z7Kernel2PbS_S_S_i'
GPGPU-Sim uArch: Shader 17 bind to kernel 2 '_Z7Kernel2PbS_S_S_i'
Destroy streams for kernel 2: size 0
kernel_name = _Z7Kernel2PbS_S_S_i 
kernel_launch_uid = 2 
gpu_sim_cycle = 1982
gpu_sim_insn = 1114192
gpu_ipc =     562.1554
gpu_tot_sim_cycle = 470993
gpu_tot_sim_insn = 2359568
gpu_tot_ipc =       5.0098
gpu_tot_issued_cta = 256
max_total_param_size = 0
gpu_stall_dramfull = 236
gpu_stall_icnt2sh    = 8083
partiton_reqs_in_parallel = 43368
partiton_reqs_in_parallel_total    = 529694
partiton_level_parallism =      21.8809
partiton_level_parallism_total  =       1.2167
partiton_reqs_in_parallel_util = 43368
partiton_reqs_in_parallel_util_total    = 529694
gpu_sim_cycle_parition_util = 1982
gpu_tot_sim_cycle_parition_util    = 24077
partiton_level_parallism_util =      21.8809
partiton_level_parallism_util_total  =      21.9909
partiton_replys_in_parallel = 2136
partiton_replys_in_parallel_total    = 2220
L2_BW  =     102.1486 GB/Sec
L2_BW_total  =       0.8766 GB/Sec
gpu_total_sim_rate=13879

========= Core cache stats =========
L1I_cache:
	L1I_total_cache_accesses = 43152
	L1I_total_cache_misses = 5466
	L1I_total_cache_miss_rate = 0.1267
	L1I_total_cache_pending_hits = 0
	L1I_total_cache_reservation_fails = 16399
L1D_cache:
	L1D_cache_core[0]: Access = 0, Miss = 0, Miss_rate = -nan, Pending_hits = 0, Reservation_fails = 0
	L1D_cache_core[1]: Access = 0, Miss = 0, Miss_rate = -nan, Pending_hits = 0, Reservation_fails = 0
	L1D_cache_core[2]: Access = 0, Miss = 0, Miss_rate = -nan, Pending_hits = 0, Reservation_fails = 0
	L1D_cache_core[3]: Access = 0, Miss = 0, Miss_rate = -nan, Pending_hits = 0, Reservation_fails = 0
	L1D_cache_core[4]: Access = 0, Miss = 0, Miss_rate = -nan, Pending_hits = 0, Reservation_fails = 0
	L1D_cache_core[5]: Access = 0, Miss = 0, Miss_rate = -nan, Pending_hits = 0, Reservation_fails = 0
	L1D_cache_core[6]: Access = 0, Miss = 0, Miss_rate = -nan, Pending_hits = 0, Reservation_fails = 0
	L1D_cache_core[7]: Access = 0, Miss = 0, Miss_rate = -nan, Pending_hits = 0, Reservation_fails = 0
	L1D_cache_core[8]: Access = 0, Miss = 0, Miss_rate = -nan, Pending_hits = 0, Reservation_fails = 0
	L1D_cache_core[9]: Access = 0, Miss = 0, Miss_rate = -nan, Pending_hits = 0, Reservation_fails = 0
	L1D_cache_core[10]: Access = 0, Miss = 0, Miss_rate = -nan, Pending_hits = 0, Reservation_fails = 0
	L1D_cache_core[11]: Access = 0, Miss = 0, Miss_rate = -nan, Pending_hits = 0, Reservation_fails = 0
	L1D_cache_core[12]: Access = 0, Miss = 0, Miss_rate = -nan, Pending_hits = 0, Reservation_fails = 0
	L1D_cache_core[13]: Access = 0, Miss = 0, Miss_rate = -nan, Pending_hits = 0, Reservation_fails = 0
	L1D_cache_core[14]: Access = 0, Miss = 0, Miss_rate = -nan, Pending_hits = 0, Reservation_fails = 0
	L1D_cache_core[15]: Access = 0, Miss = 0, Miss_rate = -nan, Pending_hits = 0, Reservation_fails = 0
	L1D_cache_core[16]: Access = 0, Miss = 0, Miss_rate = -nan, Pending_hits = 0, Reservation_fails = 0
	L1D_cache_core[17]: Access = 0, Miss = 0, Miss_rate = -nan, Pending_hits = 0, Reservation_fails = 0
	L1D_cache_core[18]: Access = 0, Miss = 0, Miss_rate = -nan, Pending_hits = 0, Reservation_fails = 0
	L1D_cache_core[19]: Access = 0, Miss = 0, Miss_rate = -nan, Pending_hits = 0, Reservation_fails = 0
	L1D_cache_core[20]: Access = 0, Miss = 0, Miss_rate = -nan, Pending_hits = 0, Reservation_fails = 0
	L1D_cache_core[21]: Access = 0, Miss = 0, Miss_rate = -nan, Pending_hits = 0, Reservation_fails = 0
	L1D_cache_core[22]: Access = 0, Miss = 0, Miss_rate = -nan, Pending_hits = 0, Reservation_fails = 0
	L1D_cache_core[23]: Access = 0, Miss = 0, Miss_rate = -nan, Pending_hits = 0, Reservation_fails = 0
	L1D_cache_core[24]: Access = 0, Miss = 0, Miss_rate = -nan, Pending_hits = 0, Reservation_fails = 0
	L1D_cache_core[25]: Access = 0, Miss = 0, Miss_rate = -nan, Pending_hits = 0, Reservation_fails = 0
	L1D_cache_core[26]: Access = 0, Miss = 0, Miss_rate = -nan, Pending_hits = 0, Reservation_fails = 0
	L1D_cache_core[27]: Access = 0, Miss = 0, Miss_rate = -nan, Pending_hits = 0, Reservation_fails = 0
	L1D_total_cache_accesses = 0
	L1D_total_cache_misses = 0
	L1D_total_cache_pending_hits = 0
	L1D_total_cache_reservation_fails = 0
	L1D_cache_data_port_util = 0.000
	L1D_cache_fill_port_util = 0.000
L1C_cache:
	L1C_total_cache_accesses = 24576
	L1C_total_cache_misses = 1792
	L1C_total_cache_miss_rate = 0.0729
	L1C_total_cache_pending_hits = 0
	L1C_total_cache_reservation_fails = 4886
L1T_cache:
	L1T_total_cache_accesses = 0
	L1T_total_cache_misses = 0
	L1T_total_cache_pending_hits = 0
	L1T_total_cache_reservation_fails = 0

Total_core_cache_stats:
	Total_core_cache_stats_breakdown[GLOBAL_ACC_R][HIT] = 0
	Total_core_cache_stats_breakdown[GLOBAL_ACC_R][HIT_RESERVED] = 0
	Total_core_cache_stats_breakdown[GLOBAL_ACC_R][MISS] = 0
	Total_core_cache_stats_breakdown[GLOBAL_ACC_R][RESERVATION_FAIL] = 0
	Total_core_cache_stats_breakdown[LOCAL_ACC_R][HIT] = 0
	Total_core_cache_stats_breakdown[LOCAL_ACC_R][HIT_RESERVED] = 0
	Total_core_cache_stats_breakdown[LOCAL_ACC_R][MISS] = 0
	Total_core_cache_stats_breakdown[LOCAL_ACC_R][RESERVATION_FAIL] = 0
	Total_core_cache_stats_breakdown[CONST_ACC_R][HIT] = 22784
	Total_core_cache_stats_breakdown[CONST_ACC_R][HIT_RESERVED] = 0
	Total_core_cache_stats_breakdown[CONST_ACC_R][MISS] = 1792
	Total_core_cache_stats_breakdown[CONST_ACC_R][RESERVATION_FAIL] = 4886
	Total_core_cache_stats_breakdown[TEXTURE_ACC_R][HIT] = 0
	Total_core_cache_stats_breakdown[TEXTURE_ACC_R][HIT_RESERVED] = 0
	Total_core_cache_stats_breakdown[TEXTURE_ACC_R][MISS] = 0
	Total_core_cache_stats_breakdown[TEXTURE_ACC_R][RESERVATION_FAIL] = 0
	Total_core_cache_stats_breakdown[GLOBAL_ACC_W][HIT] = 0
	Total_core_cache_stats_breakdown[GLOBAL_ACC_W][HIT_RESERVED] = 0
	Total_core_cache_stats_breakdown[GLOBAL_ACC_W][MISS] = 0
	Total_core_cache_stats_breakdown[GLOBAL_ACC_W][RESERVATION_FAIL] = 0
	Total_core_cache_stats_breakdown[LOCAL_ACC_W][HIT] = 0
	Total_core_cache_stats_breakdown[LOCAL_ACC_W][HIT_RESERVED] = 0
	Total_core_cache_stats_breakdown[LOCAL_ACC_W][MISS] = 0
	Total_core_cache_stats_breakdown[LOCAL_ACC_W][RESERVATION_FAIL] = 0
	Total_core_cache_stats_breakdown[L1_WRBK_ACC][HIT] = 0
	Total_core_cache_stats_breakdown[L1_WRBK_ACC][HIT_RESERVED] = 0
	Total_core_cache_stats_breakdown[L1_WRBK_ACC][MISS] = 0
	Total_core_cache_stats_breakdown[L1_WRBK_ACC][RESERVATION_FAIL] = 0
	Total_core_cache_stats_breakdown[L2_WRBK_ACC][HIT] = 0
	Total_core_cache_stats_breakdown[L2_WRBK_ACC][HIT_RESERVED] = 0
	Total_core_cache_stats_breakdown[L2_WRBK_ACC][MISS] = 0
	Total_core_cache_stats_breakdown[L2_WRBK_ACC][RESERVATION_FAIL] = 0
	Total_core_cache_stats_breakdown[INST_ACC_R][HIT] = 37686
	Total_core_cache_stats_breakdown[INST_ACC_R][HIT_RESERVED] = 0
	Total_core_cache_stats_breakdown[INST_ACC_R][MISS] = 5466
	Total_core_cache_stats_breakdown[INST_ACC_R][RESERVATION_FAIL] = 16399
	Total_core_cache_stats_breakdown[L1_WR_ALLOC_R][HIT] = 0
	Total_core_cache_stats_breakdown[L1_WR_ALLOC_R][HIT_RESERVED] = 0
	Total_core_cache_stats_breakdown[L1_WR_ALLOC_R][MISS] = 0
	Total_core_cache_stats_breakdown[L1_WR_ALLOC_R][RESERVATION_FAIL] = 0
	Total_core_cache_stats_breakdown[L2_WR_ALLOC_R][HIT] = 0
	Total_core_cache_stats_breakdown[L2_WR_ALLOC_R][HIT_RESERVED] = 0
	Total_core_cache_stats_breakdown[L2_WR_ALLOC_R][MISS] = 0
	Total_core_cache_stats_breakdown[L2_WR_ALLOC_R][RESERVATION_FAIL] = 0
	Total_core_cache_stats_breakdown[CONST_ACC_R][TOTAL_ACCESS] = 24576
	Total_core_cache_stats_breakdown[INST_ACC_R][TOTAL_ACCESS] = 43152
Shader 0 warp_id issue ditsribution:
warp_id:
0, 1, 2, 3, 4, 5, 6, 7, 8, 9, 10, 11, 12, 13, 14, 15, 16, 17, 18, 19, 20, 21, 22, 23, 24, 25, 26, 27, 28, 29, 30, 31, 32, 33, 34, 35, 36, 37, 38, 39, 40, 41, 42, 43, 44, 45, 46, 47, 48, 49, 50, 51, 52, 53, 54, 55, 56, 57, 58, 59, 60, 61, 62, 63, 
distro:
44, 44, 43, 44, 43, 44, 43, 44, 44, 44, 44, 44, 44, 44, 44, 44, 44, 44, 44, 44, 44, 44, 44, 44, 44, 44, 44, 44, 44, 44, 44, 44, 44, 44, 44, 44, 44, 44, 44, 44, 44, 44, 44, 44, 44, 44, 44, 44, 44, 44, 44, 44, 44, 44, 44, 44, 44, 44, 44, 44, 44, 44, 44, 44, 
gpgpu_n_tot_thrd_icount = 2499680
gpgpu_n_tot_w_icount = 78115
gpgpu_n_stall_shd_mem = 5436
gpgpu_n_mem_read_local = 0
gpgpu_n_mem_write_local = 0
gpgpu_n_mem_read_global = 4138
gpgpu_n_mem_write_global = 49
gpgpu_n_mem_texture = 0
gpgpu_n_mem_const = 28
gpgpu_n_load_insn  = 131114
gpgpu_n_store_insn = 49
gpgpu_n_shmem_insn = 0
gpgpu_n_tex_insn = 0
gpgpu_n_const_mem_insn = 0
gpgpu_n_param_mem_insn = 786432
gpgpu_n_shmem_bkconflict = 0
gpgpu_n_cache_bkconflict = 0
gpgpu_n_intrawarp_mshr_merge = 0
gpgpu_n_cmem_portconflict = 4886
gpgpu_stall_shd_mem[c_mem][bk_conf] = 4886
gpgpu_stall_shd_mem[c_mem][mshr_rc] = 0
gpgpu_stall_shd_mem[c_mem][icnt_rc] = 0
gpgpu_stall_shd_mem[c_mem][data_port_stall] = 0
gpgpu_stall_shd_mem[t_mem][mshr_rc] = 0
gpgpu_stall_shd_mem[t_mem][icnt_rc] = 0
gpgpu_stall_shd_mem[t_mem][data_port_stall] = 0
gpgpu_stall_shd_mem[s_mem][bk_conf] = 0
gpgpu_stall_shd_mem[gl_mem][bk_conf] = 0
gpgpu_stall_shd_mem[gl_mem][coal_stall] = 4
gpgpu_stall_shd_mem[gl_mem][data_port_stall] = 0
gpgpu_stall_shd_mem[g_mem_ld][mshr_rc] = 0
gpgpu_stall_shd_mem[g_mem_ld][icnt_rc] = 546
gpgpu_stall_shd_mem[g_mem_ld][wb_icnt_rc] = 0
gpgpu_stall_shd_mem[g_mem_ld][wb_rsrv_fail] = 0
gpgpu_stall_shd_mem[g_mem_st][mshr_rc] = 0
gpgpu_stall_shd_mem[g_mem_st][icnt_rc] = 0
gpgpu_stall_shd_mem[g_mem_st][wb_icnt_rc] = 0
gpgpu_stall_shd_mem[g_mem_st][wb_rsrv_fail] = 0
gpgpu_stall_shd_mem[l_mem_ld][mshr_rc] = 0
gpgpu_stall_shd_mem[l_mem_ld][icnt_rc] = 0
gpgpu_stall_shd_mem[l_mem_ld][wb_icnt_rc] = 0
gpgpu_stall_shd_mem[l_mem_ld][wb_rsrv_fail] = 0
gpgpu_stall_shd_mem[l_mem_st][mshr_rc] = 0
gpgpu_stall_shd_mem[l_mem_st][icnt_rc] = 0
gpgpu_stall_shd_mem[l_mem_ld][wb_icnt_rc] = 0
gpgpu_stall_shd_mem[l_mem_ld][wb_rsrv_fail] = 0
gpu_reg_bank_conflict_stalls = 0
Warp Occupancy Distribution:
Stall:20492	W0_Idle:67327	W0_Scoreboard:193322	W1:291	W2:0	W3:0	W4:0	W5:0	W6:0	W7:0	W8:0	W9:0	W10:0	W11:0	W12:0	W13:0	W14:0	W15:0	W16:0	W17:0	W18:0	W19:0	W20:0	W21:0	W22:0	W23:0	W24:0	W25:0	W26:0	W27:0	W28:0	W29:0	W30:0	W31:0	W32:77824
traffic_breakdown_coretomem[CONST_ACC_R] = 224 {8:28,}
traffic_breakdown_coretomem[GLOBAL_ACC_R] = 33104 {8:4138,}
traffic_breakdown_coretomem[GLOBAL_ACC_W] = 1960 {40:49,}
traffic_breakdown_coretomem[INST_ACC_R] = 1128 {8:141,}
traffic_breakdown_memtocore[CONST_ACC_R] = 2016 {72:28,}
traffic_breakdown_memtocore[GLOBAL_ACC_R] = 165520 {40:4138,}
traffic_breakdown_memtocore[GLOBAL_ACC_W] = 392 {8:49,}
traffic_breakdown_memtocore[INST_ACC_R] = 19176 {136:141,}
maxmrqlatency = 108 
maxdqlatency = 0 
maxmflatency = 6625 
averagemflatency = 1359 
max_icnt2mem_latency = 6390 
max_icnt2sh_latency = 470992 
mrq_lat_table:374 	75 	90 	129 	84 	210 	111 	0 	0 	0 	0 	0 	0 	0 	0 	0 	0 	0 	0 	0 	0 	0 	0 	0 	0 	0 	0 	0 	0 	0 	0 	0 	
[...]
	L2_cache_stats_breakdown[CONST_ACC_R][TOTAL_ACCESS] = 28
	L2_cache_stats_breakdown[GLOBAL_ACC_W][TOTAL_ACCESS] = 295310
	L2_cache_stats_breakdown[INST_ACC_R][TOTAL_ACCESS] = 168
L2_cache_data_port_util = 0.220
L2_cache_fill_port_util = 0.011

icnt_total_pkts_mem_to_simt=2597859
icnt_total_pkts_simt_to_mem=1482717
LD_mem_lat_dist  0 0 0 0 0 0 0 0 0 0 0 0 0 0 0 0 0 0 0 0 0 0 0 0 0 0 0
ST_mem_lat_dist  0 0 0 0 0 0 0 0 0 0 0 0 0 0 0 0 0 0 0 0 0 0 0 0 0 0 0
----------------------------Interconnect-DETAILS--------------------------------
Class 0:
Packet latency average = 8.81226
	minimum = 6
	maximum = 26
Network latency average = 8.68457
	minimum = 6
	maximum = 24
Slowest packet = 2371217
Flit latency average = 8.39583
	minimum = 6
	maximum = 24
Slowest flit = 4075283
Fragmentation average = 0
	minimum = 0
	maximum = 0
Injected packet rate average = 0.0420534
	minimum = 0.0328542 (at node 3)
	maximum = 0.0492813 (at node 40)
Accepted packet rate average = 0.0420534
	minimum = 0.0328542 (at node 3)
	maximum = 0.0492813 (at node 40)
Injected flit rate average = 0.0630801
	minimum = 0.0328542 (at node 3)
	maximum = 0.0985626 (at node 40)
Accepted flit rate average= 0.0630801
	minimum = 0.0472279 (at node 28)
	maximum = 0.0821355 (at node 0)
Injected packet length average = 1.5
Accepted packet length average = 1.5
Total in-flight flits = 0 (0 measured)
====== Overall Traffic Statistics ======
====== Traffic class 0 ======
Packet latency average = 36.4164 (20 samples)
	minimum = 6 (20 samples)
	maximum = 316.55 (20 samples)
Network latency average = 21.9388 (20 samples)
	minimum = 6 (20 samples)
	maximum = 246.3 (20 samples)
Flit latency average = 22.5444 (20 samples)
	minimum = 6 (20 samples)
	maximum = 245.55 (20 samples)
Fragmentation average = 0.008216 (20 samples)
	minimum = 0 (20 samples)
	maximum = 98.85 (20 samples)
Injected packet rate average = 0.0463266 (20 samples)
	minimum = 0.0341721 (20 samples)
	maximum = 0.112743 (20 samples)
Accepted packet rate average = 0.0463266 (20 samples)
	minimum = 0.0341721 (20 samples)
	maximum = 0.112743 (20 samples)
Injected flit rate average = 0.0739826 (20 samples)
	minimum = 0.0426447 (20 samples)
	maximum = 0.162544 (20 samples)
Accepted flit rate average = 0.0739826 (20 samples)
	minimum = 0.0544453 (20 samples)
	maximum = 0.21657 (20 samples)
Injected packet size average = 1.59698 (20 samples)
Accepted packet size average = 1.59698 (20 samples)
Hops average = 1 (20 samples)
----------------------------END-of-Interconnect-DETAILS-------------------------


gpgpu_simulation_time = 0 days, 1 hrs, 14 min, 14 sec (4454 sec)
gpgpu_simulation_rate = 7083 (inst/sec)
gpgpu_simulation_rate = 1077 (cycle/sec)
Kernel Executed 10 times
Result stored in result.txt
========================================UVM statistics==============================
========================================TLB statistics(access)==============================
Shader0: Tlb_access: 43440 Tlb_hit: 41980 Tlb_miss: 1460 Tlb_hit_rate: 0.966390
Shader1: Tlb_access: 46933 Tlb_hit: 45454 Tlb_miss: 1479 Tlb_hit_rate: 0.968487
Shader2: Tlb_access: 44775 Tlb_hit: 43259 Tlb_miss: 1516 Tlb_hit_rate: 0.966142
Shader3: Tlb_access: 44675 Tlb_hit: 43233 Tlb_miss: 1442 Tlb_hit_rate: 0.967722
Shader4: Tlb_access: 38364 Tlb_hit: 36987 Tlb_miss: 1377 Tlb_hit_rate: 0.964107
Shader5: Tlb_access: 44325 Tlb_hit: 42784 Tlb_miss: 1541 Tlb_hit_rate: 0.965234
Shader6: Tlb_access: 43835 Tlb_hit: 42391 Tlb_miss: 1444 Tlb_hit_rate: 0.967058
Shader7: Tlb_access: 36349 Tlb_hit: 34980 Tlb_miss: 1369 Tlb_hit_rate: 0.962337
Shader8: Tlb_access: 39095 Tlb_hit: 37722 Tlb_miss: 1373 Tlb_hit_rate: 0.964880
Shader9: Tlb_access: 39306 Tlb_hit: 37967 Tlb_miss: 1339 Tlb_hit_rate: 0.965934
Shader10: Tlb_access: 44944 Tlb_hit: 43445 Tlb_miss: 1499 Tlb_hit_rate: 0.966647
Shader11: Tlb_access: 44040 Tlb_hit: 42598 Tlb_miss: 1442 Tlb_hit_rate: 0.967257
Shader12: Tlb_access: 44825 Tlb_hit: 43468 Tlb_miss: 1357 Tlb_hit_rate: 0.969727
Shader13: Tlb_access: 43155 Tlb_hit: 41660 Tlb_miss: 1495 Tlb_hit_rate: 0.965357
Shader14: Tlb_access: 38954 Tlb_hit: 37557 Tlb_miss: 1397 Tlb_hit_rate: 0.964137
Shader15: Tlb_access: 39764 Tlb_hit: 38406 Tlb_miss: 1358 Tlb_hit_rate: 0.965849
Shader16: Tlb_access: 41688 Tlb_hit: 40357 Tlb_miss: 1331 Tlb_hit_rate: 0.968072
Shader17: Tlb_access: 41280 Tlb_hit: 39889 Tlb_miss: 1391 Tlb_hit_rate: 0.966303
Shader18: Tlb_access: 44952 Tlb_hit: 43466 Tlb_miss: 1486 Tlb_hit_rate: 0.966942
Shader19: Tlb_access: 41662 Tlb_hit: 40354 Tlb_miss: 1308 Tlb_hit_rate: 0.968605
Shader20: Tlb_access: 45032 Tlb_hit: 43674 Tlb_miss: 1358 Tlb_hit_rate: 0.969844
Shader21: Tlb_access: 39980 Tlb_hit: 38647 Tlb_miss: 1333 Tlb_hit_rate: 0.966658
Shader22: Tlb_access: 40085 Tlb_hit: 38712 Tlb_miss: 1373 Tlb_hit_rate: 0.965748
Shader23: Tlb_access: 39709 Tlb_hit: 38252 Tlb_miss: 1457 Tlb_hit_rate: 0.963308
Shader24: Tlb_access: 42514 Tlb_hit: 41085 Tlb_miss: 1429 Tlb_hit_rate: 0.966388
Shader25: Tlb_access: 41999 Tlb_hit: 40556 Tlb_miss: 1443 Tlb_hit_rate: 0.965642
Shader26: Tlb_access: 41925 Tlb_hit: 40616 Tlb_miss: 1309 Tlb_hit_rate: 0.968778
Shader27: Tlb_access: 41122 Tlb_hit: 39672 Tlb_miss: 1450 Tlb_hit_rate: 0.964739
Tlb_tot_access: 1178727 Tlb_tot_hit: 1139171, Tlb_tot_miss: 39556, Tlb_tot_hit_rate: 0.966442
========================================TLB statistics(validate)==============================
Shader0: Tlb_validate: 209 Tlb_invalidate: 112 Tlb_evict: 0 Tlb_page_evict: 112
Shader1: Tlb_validate: 218 Tlb_invalidate: 112 Tlb_evict: 0 Tlb_page_evict: 112
Shader2: Tlb_validate: 220 Tlb_invalidate: 112 Tlb_evict: 0 Tlb_page_evict: 112
Shader3: Tlb_validate: 211 Tlb_invalidate: 112 Tlb_evict: 0 Tlb_page_evict: 112
Shader4: Tlb_validate: 206 Tlb_invalidate: 112 Tlb_evict: 0 Tlb_page_evict: 112
Shader5: Tlb_validate: 212 Tlb_invalidate: 112 Tlb_evict: 0 Tlb_page_evict: 112
Shader6: Tlb_validate: 210 Tlb_invalidate: 112 Tlb_evict: 0 Tlb_page_evict: 112
Shader7: Tlb_validate: 202 Tlb_invalidate: 112 Tlb_evict: 0 Tlb_page_evict: 112
Shader8: Tlb_validate: 208 Tlb_invalidate: 112 Tlb_evict: 0 Tlb_page_evict: 112
Shader9: Tlb_validate: 211 Tlb_invalidate: 112 Tlb_evict: 0 Tlb_page_evict: 112
Shader10: Tlb_validate: 222 Tlb_invalidate: 112 Tlb_evict: 0 Tlb_page_evict: 112
Shader11: Tlb_validate: 209 Tlb_invalidate: 112 Tlb_evict: 0 Tlb_page_evict: 112
Shader12: Tlb_validate: 223 Tlb_invalidate: 112 Tlb_evict: 0 Tlb_page_evict: 112
Shader13: Tlb_validate: 199 Tlb_invalidate: 112 Tlb_evict: 0 Tlb_page_evict: 112
Shader14: Tlb_validate: 198 Tlb_invalidate: 112 Tlb_evict: 0 Tlb_page_evict: 112
Shader15: Tlb_validate: 213 Tlb_invalidate: 112 Tlb_evict: 0 Tlb_page_evict: 112
Shader16: Tlb_validate: 209 Tlb_invalidate: 112 Tlb_evict: 0 Tlb_page_evict: 112
Shader17: Tlb_validate: 207 Tlb_invalidate: 112 Tlb_evict: 0 Tlb_page_evict: 112
Shader18: Tlb_validate: 211 Tlb_invalidate: 112 Tlb_evict: 0 Tlb_page_evict: 112
Shader19: Tlb_validate: 216 Tlb_invalidate: 112 Tlb_evict: 0 Tlb_page_evict: 112
Shader20: Tlb_validate: 213 Tlb_invalidate: 112 Tlb_evict: 0 Tlb_page_evict: 112
Shader21: Tlb_validate: 212 Tlb_invalidate: 112 Tlb_evict: 0 Tlb_page_evict: 112
Shader22: Tlb_validate: 201 Tlb_invalidate: 112 Tlb_evict: 0 Tlb_page_evict: 112
Shader23: Tlb_validate: 212 Tlb_invalidate: 112 Tlb_evict: 0 Tlb_page_evict: 112
Shader24: Tlb_validate: 204 Tlb_invalidate: 112 Tlb_evict: 0 Tlb_page_evict: 112
Shader25: Tlb_validate: 213 Tlb_invalidate: 112 Tlb_evict: 0 Tlb_page_evict: 112
Shader26: Tlb_validate: 203 Tlb_invalidate: 112 Tlb_evict: 0 Tlb_page_evict: 112
Shader27: Tlb_validate: 211 Tlb_invalidate: 112 Tlb_evict: 0 Tlb_page_evict: 112
Tlb_tot_valiate: 5883 Tlb_invalidate: 3136, Tlb_tot_evict: 0, Tlb_tot_evict page: 3136
========================================TLB statistics(threshing)==============================
Shader0: Total 0
Shader1: Total 0
Shader2: Total 0
Shader3: Total 0
Shader4: Total 0
Shader5: Total 0
Shader6: Total 0
Shader7: Total 0
Shader8: Total 0
Shader9: Total 0
Shader10: Total 0
Shader11: Total 0
Shader12: Total 0
Shader13: Total 0
Shader14: Total 0
Shader15: Total 0
Shader16: Total 0
Shader17: Total 0
Shader18: Total 0
Shader19: Total 0
Shader20: Total 0
Shader21: Total 0
Shader22: Total 0
Shader23: Total 0
Shader24: Total 0
Shader25: Total 0
Shader26: Total 0
Shader27: Total 0
Tlb_tot_thresh: 0
========================================Page fault statistics==============================
Shader0: Page_table_access:1460 Page_hit: 1396 Page_miss: 64 Page_hit_rate: 0.956164 Page_fault: 1 Page_pending: 63
Shader1: Page_table_access:1479 Page_hit: 1399 Page_miss: 80 Page_hit_rate: 0.945909 Page_fault: 7 Page_pending: 73
Shader2: Page_table_access:1516 Page_hit: 1420 Page_miss: 96 Page_hit_rate: 0.936675 Page_fault: 0 Page_pending: 96
Shader3: Page_table_access:1442 Page_hit: 1376 Page_miss: 66 Page_hit_rate: 0.954230 Page_fault: 0 Page_pending: 66
Shader4: Page_table_access:1377 Page_hit: 1281 Page_miss: 96 Page_hit_rate: 0.930283 Page_fault: 0 Page_pending: 96
Shader5: Page_table_access:1541 Page_hit: 1461 Page_miss: 80 Page_hit_rate: 0.948086 Page_fault: 0 Page_pending: 80
Shader6: Page_table_access:1444 Page_hit: 1380 Page_miss: 64 Page_hit_rate: 0.955679 Page_fault: 0 Page_pending: 64
Shader7: Page_table_access:1369 Page_hit: 1289 Page_miss: 80 Page_hit_rate: 0.941563 Page_fault: 0 Page_pending: 80
Shader8: Page_table_access:1373 Page_hit: 1293 Page_miss: 80 Page_hit_rate: 0.941733 Page_fault: 0 Page_pending: 80
Shader9: Page_table_access:1339 Page_hit: 1257 Page_miss: 82 Page_hit_rate: 0.938760 Page_fault: 1 Page_pending: 81
Shader10: Page_table_access:1499 Page_hit: 1417 Page_miss: 82 Page_hit_rate: 0.945297 Page_fault: 1 Page_pending: 81
Shader11: Page_table_access:1442 Page_hit: 1362 Page_miss: 80 Page_hit_rate: 0.944521 Page_fault: 0 Page_pending: 80
Shader12: Page_table_access:1357 Page_hit: 1275 Page_miss: 82 Page_hit_rate: 0.939573 Page_fault: 1 Page_pending: 81
Shader13: Page_table_access:1495 Page_hit: 1415 Page_miss: 80 Page_hit_rate: 0.946488 Page_fault: 0 Page_pending: 80
Shader14: Page_table_access:1397 Page_hit: 1315 Page_miss: 82 Page_hit_rate: 0.941303 Page_fault: 1 Page_pending: 81
Shader15: Page_table_access:1358 Page_hit: 1278 Page_miss: 80 Page_hit_rate: 0.941090 Page_fault: 0 Page_pending: 80
Shader16: Page_table_access:1331 Page_hit: 1251 Page_miss: 80 Page_hit_rate: 0.939895 Page_fault: 0 Page_pending: 80
Shader17: Page_table_access:1391 Page_hit: 1311 Page_miss: 80 Page_hit_rate: 0.942487 Page_fault: 0 Page_pending: 80
Shader18: Page_table_access:1486 Page_hit: 1422 Page_miss: 64 Page_hit_rate: 0.956931 Page_fault: 0 Page_pending: 64
Shader19: Page_table_access:1308 Page_hit: 1242 Page_miss: 66 Page_hit_rate: 0.949541 Page_fault: 1 Page_pending: 65
Shader20: Page_table_access:1358 Page_hit: 1292 Page_miss: 66 Page_hit_rate: 0.951399 Page_fault: 2 Page_pending: 64
Shader21: Page_table_access:1333 Page_hit: 1269 Page_miss: 64 Page_hit_rate: 0.951988 Page_fault: 0 Page_pending: 64
Shader22: Page_table_access:1373 Page_hit: 1309 Page_miss: 64 Page_hit_rate: 0.953387 Page_fault: 0 Page_pending: 64
Shader23: Page_table_access:1457 Page_hit: 1393 Page_miss: 64 Page_hit_rate: 0.956074 Page_fault: 0 Page_pending: 64
Shader24: Page_table_access:1429 Page_hit: 1365 Page_miss: 64 Page_hit_rate: 0.955213 Page_fault: 0 Page_pending: 64
Shader25: Page_table_access:1443 Page_hit: 1379 Page_miss: 64 Page_hit_rate: 0.955648 Page_fault: 0 Page_pending: 64
Shader26: Page_table_access:1309 Page_hit: 1243 Page_miss: 66 Page_hit_rate: 0.949580 Page_fault: 1 Page_pending: 65
Shader27: Page_table_access:1450 Page_hit: 1386 Page_miss: 64 Page_hit_rate: 0.955862 Page_fault: 0 Page_pending: 64
Page_talbe_tot_access: 39556 Page_tot_hit: 37476, Page_tot_miss 2080, Page_tot_hit_rate: 0.947416 Page_tot_fault: 16 Page_tot_pending: 2064
Total_memory_access_page_fault: 16, Average_latency 474904.968750
========================================Page threshing statistics==============================
Page_validate: 752 Page_evict_diry: 0 Page_evict_not_diry: 0
Page_tot_thresh: 0
========================================Memory access statistics==============================
========================================Prefetch statistics==============================
Tot_page_hit: 0, Tot_page_miss: 0, Tot_page_fault: 0
Avg_page_latency: 0.000000, Avg_prefetch_size: -nan, Avg_prefetch_latency: 0.000000
========================================PCI-e statistics==============================
Pcie_read_utilization: 0.662178
[0-25]: 0.025974, [26-50]: 0.042133, [51-75]: 0.931892, [76-100]: 0.000000
Pcie_write_utilization: 0.000000
[0-25]: -nan, [26-50]: -nan, [51-75]: -nan, [76-100]: -nan
F:        0----T:      633 	 St: 80000000 Sz: 1 	 Sm: 0 	 T: memcpy_h2d(0.427414)
F:   222784----T:   246861 	 	 	 Kl: 1 	 Sm: 0 	 T: kernel_launch(16.257259)
F:   223707----T:   224564 	 St: c0080000 Sz: 16384 	 Sm: 0 	 T: memcpy_h2d(0.578663)
F:   224564----T:   226280 	 St: c0084000 Sz: 49152 	 Sm: 0 	 T: memcpy_h2d(1.158677)
F:   226280----T:   226931 	 St: c0000000 Sz: 4096 	 Sm: 0 	 T: memcpy_h2d(0.439568)
F:   226931----T:   228991 	 St: c0001000 Sz: 61440 	 Sm: 0 	 T: memcpy_h2d(1.390952)
F:   228991----T:   229642 	 St: c00b0000 Sz: 4096 	 Sm: 0 	 T: memcpy_h2d(0.439568)
F:   229642----T:   231702 	 St: c00b1000 Sz: 61440 	 Sm: 0 	 T: memcpy_h2d(1.390952)
F:   231702----T:   232559 	 St: c00a0000 Sz: 16384 	 Sm: 0 	 T: memcpy_h2d(0.578663)
F:   232559----T:   234275 	 St: c00a4000 Sz: 49152 	 Sm: 0 	 T: memcpy_h2d(1.158677)
F:   234275----T:   234926 	 St: c02b0000 Sz: 4096 	 Sm: 0 	 T: memcpy_h2d(0.439568)
F:   234926----T:   236986 	 St: c02b1000 Sz: 61440 	 Sm: 0 	 T: memcpy_h2d(1.390952)
F:   236986----T:   237843 	 St: c0090000 Sz: 16384 	 Sm: 0 	 T: memcpy_h2d(0.578663)
F:   237843----T:   239559 	 St: c0094000 Sz: 49152 	 Sm: 0 	 T: memcpy_h2d(1.158677)
F:   239559----T:   241619 	 St: c02e0000 Sz: 61440 	 Sm: 0 	 T: memcpy_h2d(1.390952)
F:   241619----T:   242270 	 St: c02ef000 Sz: 4096 	 Sm: 0 	 T: memcpy_h2d(0.439568)
F:   242270----T:   244561 	 St: c02c0000 Sz: 69632 	 Sm: 0 	 T: memcpy_h2d(1.546928)
F:   244561----T:   246621 	 St: c02d1000 Sz: 61440 	 Sm: 0 	 T: memcpy_h2d(1.390952)
F:   469011----T:   470993 	 	 	 Kl: 2 	 Sm: 0 	 T: kernel_launch(1.338285)
F:   470993----T:   471626 	 St: 80000000 Sz: 1 	 Sm: 0 	 T: memcpy_d2h(0.427414)
F:   471627----T:   472260 	 St: 80000000 Sz: 1 	 Sm: 0 	 T: memcpy_h2d(0.427414)
F:   694411----T:   762393 	 	 	 Kl: 3 	 Sm: 0 	 T: kernel_launch(45.902767)
F:   694959----T:   695912 	 St: c0010000 Sz: 20480 	 Sm: 0 	 T: memcpy_h2d(0.643484)
F:   695912----T:   697515 	 St: c0015000 Sz: 45056 	 Sm: 0 	 T: memcpy_h2d(1.082377)
F:   697515----T:   699690 	 St: c0020000 Sz: 65536 	 Sm: 0 	 T: memcpy_h2d(1.468602)
F:   699690----T:   701865 	 St: c0030000 Sz: 65536 	 Sm: 0 	 T: memcpy_h2d(1.468602)
F:   701865----T:   703025 	 St: c0040000 Sz: 28672 	 Sm: 0 	 T: memcpy_h2d(0.783255)
F:   703025----T:   710000 	 St: c0047000 Sz: 233472 	 Sm: 0 	 T: memcpy_h2d(4.709656)
F:   710000----T:   711945 	 St: c00e0000 Sz: 57344 	 Sm: 0 	 T: memcpy_h2d(1.313302)
F:   711945----T:   712645 	 St: c00ee000 Sz: 8192 	 Sm: 0 	 T: memcpy_h2d(0.472654)
F:   712645----T:   714820 	 St: c00f0000 Sz: 65536 	 Sm: 0 	 T: memcpy_h2d(1.468602)
F:   714820----T:   716995 	 St: c0100000 Sz: 65536 	 Sm: 0 	 T: memcpy_h2d(1.468602)
F:   716995----T:   718485 	 St: c0120000 Sz: 40960 	 Sm: 0 	 T: memcpy_h2d(1.006077)
F:   718485----T:   725108 	 St: c012a000 Sz: 221184 	 Sm: 0 	 T: memcpy_h2d(4.471978)
F:   725108----T:   726162 	 St: c0170000 Sz: 24576 	 Sm: 0 	 T: memcpy_h2d(0.711681)
F:   726162----T:   740782 	 St: c0176000 Sz: 499712 	 Sm: 0 	 T: memcpy_h2d(9.871708)
F:   740782----T:   744822 	 St: c00c0000 Sz: 131072 	 Sm: 0 	 T: memcpy_h2d(2.727887)
F:   744822----T:   746997 	 St: c0110000 Sz: 65536 	 Sm: 0 	 T: memcpy_h2d(1.468602)
F:   746997----T:   749172 	 St: c0160000 Sz: 65536 	 Sm: 0 	 T: memcpy_h2d(1.468602)
F:   749172----T:   755795 	 St: c01f0000 Sz: 221184 	 Sm: 0 	 T: memcpy_h2d(4.471978)
F:   755795----T:   772298 	 St: c0226000 Sz: 565248 	 Sm: 0 	 T: memcpy_h2d(11.143147)
F:   984543----T:   985859 	 	 	 Kl: 4 	 Sm: 0 	 T: kernel_launch(0.888589)
F:   985859----T:   986492 	 St: 80000000 Sz: 1 	 Sm: 0 	 T: memcpy_d2h(0.427414)
F:   986493----T:   987126 	 St: 80000000 Sz: 1 	 Sm: 0 	 T: memcpy_h2d(0.427414)
F:  1209277----T:  1221015 	 	 	 Kl: 5 	 Sm: 0 	 T: kernel_launch(7.925726)
F:  1443165----T:  1444629 	 	 	 Kl: 6 	 Sm: 0 	 T: kernel_launch(0.988521)
F:  1444629----T:  1445262 	 St: 80000000 Sz: 1 	 Sm: 0 	 T: memcpy_d2h(0.427414)
F:  1445263----T:  1445896 	 St: 80000000 Sz: 1 	 Sm: 0 	 T: memcpy_h2d(0.427414)
F:  1668047----T:  1679750 	 	 	 Kl: 7 	 Sm: 0 	 T: kernel_launch(7.902093)
F:  1901900----T:  1904843 	 	 	 Kl: 8 	 Sm: 0 	 T: kernel_launch(1.987171)
F:  1904843----T:  1905476 	 St: 80000000 Sz: 1 	 Sm: 0 	 T: memcpy_d2h(0.427414)
F:  1905477----T:  1906110 	 St: 80000000 Sz: 1 	 Sm: 0 	 T: memcpy_h2d(0.427414)
F:  2128261----T:  2148776 	 	 	 Kl: 9 	 Sm: 0 	 T: kernel_launch(13.852127)
F:  2370926----T:  2375272 	 	 	 Kl: 10 	 Sm: 0 	 T: kernel_launch(2.934504)
F:  2375272----T:  2375905 	 St: 80000000 Sz: 1 	 Sm: 0 	 T: memcpy_d2h(0.427414)
F:  2375906----T:  2376539 	 St: 80000000 Sz: 1 	 Sm: 0 	 T: memcpy_h2d(0.427414)
F:  2598690----T:  2652560 	 	 	 Kl: 11 	 Sm: 0 	 T: kernel_launch(36.374073)
F:  2874710----T:  2878948 	 	 	 Kl: 12 	 Sm: 0 	 T: kernel_launch(2.861580)
F:  2878948----T:  2879581 	 St: 80000000 Sz: 1 	 Sm: 0 	 T: memcpy_d2h(0.427414)
F:  2879582----T:  2880215 	 St: 80000000 Sz: 1 	 Sm: 0 	 T: memcpy_h2d(0.427414)
F:  3102366----T:  3189693 	 	 	 Kl: 13 	 Sm: 0 	 T: kernel_launch(58.964890)
F:  3411843----T:  3416037 	 	 	 Kl: 14 	 Sm: 0 	 T: kernel_launch(2.831870)
F:  3416037----T:  3416670 	 St: 80000000 Sz: 1 	 Sm: 0 	 T: memcpy_d2h(0.427414)
F:  3416671----T:  3417304 	 St: 80000000 Sz: 1 	 Sm: 0 	 T: memcpy_h2d(0.427414)
F:  3639455----T:  3673843 	 	 	 Kl: 15 	 Sm: 0 	 T: kernel_launch(23.219446)
F:  3895993----T:  3898042 	 	 	 Kl: 16 	 Sm: 0 	 T: kernel_launch(1.383525)
F:  3898042----T:  3898675 	 St: 80000000 Sz: 1 	 Sm: 0 	 T: memcpy_d2h(0.427414)
F:  3898676----T:  3899309 	 St: 80000000 Sz: 1 	 Sm: 0 	 T: memcpy_h2d(0.427414)
F:  4121460----T:  4126793 	 	 	 Kl: 17 	 Sm: 0 	 T: kernel_launch(3.600945)
F:  4348943----T:  4350038 	 	 	 Kl: 18 	 Sm: 0 	 T: kernel_launch(0.739365)
F:  4350038----T:  4350671 	 St: 80000000 Sz: 1 	 Sm: 0 	 T: memcpy_d2h(0.427414)
F:  4350672----T:  4351305 	 St: 80000000 Sz: 1 	 Sm: 0 	 T: memcpy_h2d(0.427414)
F:  4573456----T:  4575693 	 	 	 Kl: 19 	 Sm: 0 	 T: kernel_launch(1.510466)
F:  4797843----T:  4798818 	 	 	 Kl: 20 	 Sm: 0 	 T: kernel_launch(0.658339)
F:  4798818----T:  4799451 	 St: 80000000 Sz: 1 	 Sm: 0 	 T: memcpy_d2h(0.427414)
F:  4799452----T:  4800103 	 St: 0 Sz: 4096 	 Sm: 0 	 T: device_sync(0.439568)
F:  4799452----T:  4801512 	 St: 0 Sz: 61440 	 Sm: 0 	 T: device_sync(1.390952)
F:  4802163----T:  4802814 	 St: 0 Sz: 4096 	 Sm: 0 	 T: device_sync(0.439568)
F:  4802163----T:  4804223 	 St: 0 Sz: 61440 	 Sm: 0 	 T: device_sync(1.390952)
F:  4804874----T:  4805525 	 St: 0 Sz: 4096 	 Sm: 0 	 T: device_sync(0.439568)
F:  4804874----T:  4808797 	 St: 0 Sz: 126976 	 Sm: 0 	 T: device_sync(2.648886)
F:  4809448----T:  4810099 	 St: 0 Sz: 4096 	 Sm: 0 	 T: device_sync(0.439568)
F:  4809448----T:  4815248 	 St: 0 Sz: 192512 	 Sm: 0 	 T: device_sync(3.916273)
Tot_prefetch_time: 0(cycle), 0.000000(us)
Tot_kernel_exec_time: 343772(cycle), 232.121536(us)
Tot_kernel_exec_time_and_fault_time: 1410092(cycle), 952.121521(us)
Tot_memcpy_h2d_time: 106583(cycle), 71.966911(us)
Tot_memcpy_d2h_time: 6330(cycle), 4.274139(us)
Tot_memcpy_time: 112913(cycle), 76.241051(us)
Tot_devicesync_time: 16447(cycle), 11.105334(us)
Tot_writeback_time: 0(cycle), 0.000000(us)
Tot_memcpy_d2h_sync_wb_time: 22777(cycle), 15.379474(us)
GPGPU-Sim: *** exit detected ***
