

        *** GPGPU-Sim Simulator Version 3.2.2  [build gpgpu-sim_git-commit-7c62de1d26a7fea160a1181332b97276bc435f13_modified_1] ***


GPGPU-Sim PTX: simulation mode 0 (can change with PTX_SIM_MODE_FUNC environment variable:
               1=functional simulation only, 0=detailed performance simulator)
GPGPU-Sim: Configuration options:

-network_mode                           1 # Interconnection network mode
-inter_config_file   config_fermi_islip.icnt # Interconnection network config file
-gpgpu_ptx_use_cuobjdump                    1 # Use cuobjdump to extract ptx and sass from binaries
-gpgpu_experimental_lib_support                    0 # Try to extract code from cuda libraries [Broken because of unknown cudaGetExportTable]
-gpgpu_ptx_convert_to_ptxplus                    0 # Convert SASS (native ISA) to ptxplus and run ptxplus
-gpgpu_ptx_force_max_capability                   20 # Force maximum compute capability
-gpgpu_ptx_inst_debug_to_file                    0 # Dump executed instructions' debug information to file
-gpgpu_ptx_inst_debug_file       inst_debug.txt # Executed instructions' debug output file
-gpgpu_ptx_inst_debug_thread_uid                    1 # Thread UID for executed instructions' debug output
-gpgpu_simd_model                       1 # 1 = post-dominator
-gpgpu_shader_core_pipeline              2048:32 # shader core pipeline config, i.e., {<nthread>:<warpsize>}
-gpgpu_tex_cache:l1  16:128:24,L:R:m:N:L,F:128:4,128:2 # per-shader L1 texture cache  (READ-ONLY) config  {<nsets>:<bsize>:<assoc>,<rep>:<wr>:<alloc>:<wr_alloc>,<mshr>:<N>:<merge>,<mq>:<rf>}
-gpgpu_const_cache:l1 128:64:2,L:R:f:N:L,A:2:64,4 # per-shader L1 constant memory cache  (READ-ONLY) config  {<nsets>:<bsize>:<assoc>,<rep>:<wr>:<alloc>:<wr_alloc>,<mshr>:<N>:<merge>,<mq>} 
-gpgpu_cache:il1     8:128:4,L:R:f:N:L,A:2:48,4 # shader L1 instruction cache config  {<nsets>:<bsize>:<assoc>,<rep>:<wr>:<alloc>:<wr_alloc>,<mshr>:<N>:<merge>,<mq>} 
-gpgpu_cache:dl1     64:128:6,L:L:m:N:H,A:128:8,8 # per-shader L1 data cache config  {<nsets>:<bsize>:<assoc>,<rep>:<wr>:<alloc>:<wr_alloc>,<mshr>:<N>:<merge>,<mq> | none}
-gpgpu_cache:dl1PrefL1                 none # per-shader L1 data cache config  {<nsets>:<bsize>:<assoc>,<rep>:<wr>:<alloc>:<wr_alloc>,<mshr>:<N>:<merge>,<mq> | none}
-gpgpu_cache:dl1PrefShared                 none # per-shader L1 data cache config  {<nsets>:<bsize>:<assoc>,<rep>:<wr>:<alloc>:<wr_alloc>,<mshr>:<N>:<merge>,<mq> | none}
-gmem_skip_L1D                          1 # global memory access skip L1D cache (implements -Xptxas -dlcm=cg, default=no skip)
-gpgpu_perfect_mem                      0 # enable perfect memory mode (no cache miss)
-n_regfile_gating_group                    4 # group of lanes that should be read/written together)
-gpgpu_clock_gated_reg_file                    0 # enable clock gated reg file for power calculations
-gpgpu_clock_gated_lanes                    0 # enable clock gated lanes for power calculations
-gpgpu_shader_registers                65536 # Number of registers per shader core. Limits number of concurrent CTAs. (default 8192)
-gpgpu_shader_cta                      32 # Maximum number of concurrent CTAs in shader (default 8)
-gpgpu_num_cta_barriers                   16 # Maximum number of named barriers per CTA (default 16)
-gpgpu_n_clusters                      28 # number of processing clusters
-gpgpu_n_cores_per_cluster                    1 # number of simd cores per cluster
-gpgpu_n_cluster_ejection_buffer_size                    8 # number of packets in ejection buffer
-gpgpu_n_ldst_response_buffer_size                    2 # number of response packets in ld/st unit ejection buffer
-gpgpu_shmem_size                   16384 # Size of shared memory per shader core (default 16kB)
-gpgpu_shmem_size                   98304 # Size of shared memory per shader core (default 16kB)
-gpgpu_shmem_size_PrefL1                16384 # Size of shared memory per shader core (default 16kB)
-gpgpu_shmem_size_PrefShared                16384 # Size of shared memory per shader core (default 16kB)
-gpgpu_shmem_num_banks                   32 # Number of banks in the shared memory in each shader core (default 16)
-gpgpu_shmem_limited_broadcast                    0 # Limit shared memory to do one broadcast per cycle (default on)
-gpgpu_shmem_warp_parts                    1 # Number of portions a warp is divided into for shared memory bank conflict check 
-gpgpu_warpdistro_shader                   -1 # Specify which shader core to collect the warp size distribution from
-gpgpu_warp_issue_shader                    0 # Specify which shader core to collect the warp issue distribution from
-gpgpu_local_mem_map                    1 # Mapping from local memory space address to simulated GPU physical address space (default = enabled)
-gpgpu_num_reg_banks                   32 # Number of register banks (default = 8)
-gpgpu_reg_bank_use_warp_id                    0 # Use warp ID in mapping registers to banks (default = off)
-gpgpu_operand_collector_num_units_sp                   20 # number of collector units (default = 4)
-gpgpu_operand_collector_num_units_sfu                    4 # number of collector units (default = 4)
-gpgpu_operand_collector_num_units_mem                    8 # number of collector units (default = 2)
-gpgpu_operand_collector_num_units_gen                    0 # number of collector units (default = 0)
-gpgpu_operand_collector_num_in_ports_sp                    4 # number of collector unit in ports (default = 1)
-gpgpu_operand_collector_num_in_ports_sfu                    1 # number of collector unit in ports (default = 1)
-gpgpu_operand_collector_num_in_ports_mem                    1 # number of collector unit in ports (default = 1)
-gpgpu_operand_collector_num_in_ports_gen                    0 # number of collector unit in ports (default = 0)
-gpgpu_operand_collector_num_out_ports_sp                    4 # number of collector unit in ports (default = 1)
-gpgpu_operand_collector_num_out_ports_sfu                    1 # number of collector unit in ports (default = 1)
-gpgpu_operand_collector_num_out_ports_mem                    1 # number of collector unit in ports (default = 1)
-gpgpu_operand_collector_num_out_ports_gen                    0 # number of collector unit in ports (default = 0)
-gpgpu_coalesce_arch                   13 # Coalescing arch (default = 13, anything else is off for now)
-gpgpu_num_sched_per_core                    2 # Number of warp schedulers per core
-gpgpu_max_insn_issue_per_warp                    2 # Max number of instructions that can be issued per warp in one cycle by scheduler
-gpgpu_simt_core_sim_order                    1 # Select the simulation order of cores in a cluster (0=Fix, 1=Round-Robin)
-gpgpu_pipeline_widths        4,1,1,4,1,1,6 # Pipeline widths ID_OC_SP,ID_OC_SFU,ID_OC_MEM,OC_EX_SP,OC_EX_SFU,OC_EX_MEM,EX_WB
-gpgpu_num_sp_units                     4 # Number of SP units (default=1)
-gpgpu_num_sfu_units                    1 # Number of SF units (default=1)
-gpgpu_num_mem_units                    1 # Number if ldst units (default=1) WARNING: not hooked up to anything
-gpgpu_scheduler                      gto # Scheduler configuration: < lrr | gto | two_level_active > If two_level_active:<num_active_warps>:<inner_prioritization>:<outer_prioritization>For complete list of prioritization values see shader.h enum scheduler_prioritization_typeDefault: gto
-gpgpu_concurrent_kernel_sm                    0 # Support concurrent kernels on a SM (default = disabled)
-tlb_size                            4096 # Number of tlb entries per SM.
-gpgpu_dram_scheduler                    1 # 0 = fifo, 1 = FR-FCFS (defaul)
-gpgpu_dram_partition_queues              8:8:8:8 # i2$:$2d:d2$:$2i
-l2_ideal                               0 # Use a ideal L2 cache that always hit
-gpgpu_cache:dl2     64:128:16,L:B:m:W:L,A:1024:1024,4:0,32 # unified banked L2 data cache config  {<nsets>:<bsize>:<assoc>,<rep>:<wr>:<alloc>:<wr_alloc>,<mshr>:<N>:<merge>,<mq>}
-gpgpu_cache:dl2_texture_only                    0 # L2 cache used for texture only
-gpgpu_n_mem                           11 # number of memory modules (e.g. memory controllers) in gpu
-gpgpu_n_sub_partition_per_mchannel                    2 # number of memory subpartition in each memory module
-gpgpu_n_mem_per_ctrlr                    1 # number of memory chips per memory controller
-gpgpu_memlatency_stat                   14 # track and display latency statistics 0x2 enables MC, 0x4 enables queue logs
-gpgpu_frfcfs_dram_sched_queue_size                   64 # 0 = unlimited (default); # entries per chip
-gpgpu_dram_return_queue_size                  116 # 0 = unlimited (default); # entries per chip
-gpgpu_dram_buswidth                    4 # default = 4 bytes (8 bytes per cycle at DDR)
-gpgpu_dram_burst_length                    8 # Burst length of each DRAM request (default = 4 data bus cycle)
-dram_data_command_freq_ratio                    4 # Frequency ratio between DRAM data bus and command bus (default = 2 times, i.e. DDR)
-gpgpu_dram_timing_opt nbk=16:CCD=2:RRD=6:RCD=12:RAS=28:RP=12:RC=40: CL=12:WL=4:CDLR=5:WR=12:nbkgrp=1:CCDL=0:RTPL=0 # DRAM timing parameters = {nbk:tCCD:tRRD:tRCD:tRAS:tRP:tRC:CL:WL:tCDLR:tWR:nbkgrp:tCCDL:tRTPL}
-rop_latency                          120 # ROP queue latency (default 85)
-dram_latency                         100 # DRAM latency (default 30)
-gpgpu_mem_addr_mapping dramid@8;00000000.00000000.00000000.00000000.0000RRRR.RRRRRRRR.RBBBCCCC.BCCSSSSS # mapping memory address to dram model {dramid@<start bit>;<memory address map>}
-gpgpu_mem_addr_test                    0 # run sweep test to check address mapping for aliased address
-gpgpu_mem_address_mask                    1 # 0 = old addressing mask, 1 = new addressing mask, 2 = new add. mask + flipped bank sel and chip sel bits
-gpuwattch_xml_file  gpuwattch_geforcegtx1080ti.xml # GPUWattch XML file
-power_simulation_enabled                    1 # Turn on power simulator (1=On, 0=Off)
-power_per_cycle_dump                    0 # Dump detailed power output each cycle
-power_trace_enabled                    0 # produce a file for the power trace (1=On, 0=Off)
-power_trace_zlevel                     6 # Compression level of the power trace output log (0=no comp, 9=highest)
-steady_power_levels_enabled                    0 # produce a file for the steady power levels (1=On, 0=Off)
-steady_state_definition                  8:4 # allowed deviation:number of samples
-gpgpu_max_cycle                        0 # terminates gpu simulation early (0 = no limit)
-gpgpu_max_insn                         0 # terminates gpu simulation early (0 = no limit)
-gpgpu_max_cta                          0 # terminates gpu simulation early (0 = no limit)
-gpgpu_runtime_stat                   500 # display runtime statistics such as dram utilization {<freq>:<flag>}
-liveness_message_freq                    1 # Minimum number of seconds between simulation liveness messages (0 = always print)
-gpgpu_flush_l1_cache                    0 # Flush L1 cache at the end of each kernel call
-gpgpu_flush_l2_cache                    0 # Flush L2 cache at the end of each kernel call
-gpgpu_deadlock_detect                    0 # Stop the simulation at deadlock (1=on (default), 0=off)
-gpgpu_ptx_instruction_classification                    0 # if enabled will classify ptx instruction types per kernel (Max 255 kernels now)
-gpgpu_ptx_sim_mode                     0 # Select between Performance (default) or Functional simulation (1)
-gpgpu_clock_domains 1481.0:2962.0:1481.0:2750.0 # Clock Domain Frequencies in MhZ {<Core Clock>:<ICNT Clock>:<L2 Clock>:<DRAM Clock>}
-gpgpu_max_concurrent_kernel                    8 # maximum kernels that can run concurrently on GPU
-gpgpu_cflog_interval                    0 # Interval between each snapshot in control flow logger
-visualizer_enabled                     0 # Turn on visualizer output (1=On, 0=Off)
-visualizer_outputfile                 NULL # Specifies the output log file for visualizer
-visualizer_zlevel                      6 # Compression level of the visualizer output log (0=no comp, 9=highest)
-trace_enabled                          0 # Turn on traces
-trace_components                    none # comma seperated list of traces to enable. Complete list found in trace_streams.tup. Default none
-trace_sampling_core                    0 # The core which is printed using CORE_DPRINTF. Default 0
-trace_sampling_memory_partition                   -1 # The memory partition which is printed using MEMPART_DPRINTF. Default -1 (i.e. all)
-gddr_size                            1GB # Size of GDDR in MB/GB.(GLOBAL_HEAP_START, GLOBAL_HEAP_START + gddr_size) would be used for unmanged memory, (GLOBAL_HEAP_START + gddr_size, GLOBAL_HEAP_START + gddr_size*2) would be used for managed memory. 
-page_table_walk_latency                  100 # Average page table walk latency (in core cycle).
-eviction_policy                      lru # Memory eviction policy: lru or random.
-percentage_of_free_page_buffer                    0 # Percentage of free page buffer to trigger the page eviction.
-page_size                            4KB # GDDR page size, only 4KB/2MB avaliable.
-pcie_bandwith                   64.0GB/s # PCI-e bandwith per direction, in GB/s.
-sim_prof_enable                        1 # Enable gpgpu-sim profiler
-hardware_prefetch                      1 # Enable gpgpu-sim hardware prefetcher
-page_fault_latency                 66645 # Average fault latency (in core cycle).
-enable_accurate_simulation                    0 # Enable page fault functional simulation.
-enable_ptx_file_line_stats                    1 # Turn on PTX source line statistic profiling. (1 = On)
-ptx_line_stats_filename gpgpu_inst_stats.txt # Output file for PTX source line statistics.
-gpgpu_kernel_launch_latency               222150 # Kernel launch latency in cycles. Default: 0
-gpgpu_cdp_enabled                      0 # Turn on CDP
-save_embedded_ptx                      0 # saves ptx files embedded in binary as <n>.ptx
-keep                                   0 # keep intermediate files created by GPGPU-Sim when interfacing with external programs
-gpgpu_ptx_save_converted_ptxplus                    0 # Saved converted ptxplus to a file
-ptx_opcode_latency_int         4,13,4,5,145 # Opcode latencies for integers <ADD,MAX,MUL,MAD,DIV>Default 1,1,19,25,145
-ptx_opcode_latency_fp          4,13,4,5,39 # Opcode latencies for single precision floating points <ADD,MAX,MUL,MAD,DIV>Default 1,1,1,1,30
-ptx_opcode_latency_dp         8,19,8,8,330 # Opcode latencies for double precision floating points <ADD,MAX,MUL,MAD,DIV>Default 8,8,8,8,335
-ptx_opcode_initiation_int            1,2,2,2,8 # Opcode initiation intervals for integers <ADD,MAX,MUL,MAD,DIV>Default 1,1,4,4,32
-ptx_opcode_initiation_fp            1,2,1,1,4 # Opcode initiation intervals for single precision floating points <ADD,MAX,MUL,MAD,DIV>Default 1,1,1,1,5
-ptx_opcode_initiation_dp          1,2,1,1,130 # Opcode initiation intervals for double precision floating points <ADD,MAX,MUL,MAD,DIV>Default 8,8,8,8,130
-cdp_latency         7200,8000,100,12000,1600 # CDP API latency <cudaStreamCreateWithFlags, cudaGetParameterBufferV2_init_perWarp, cudaGetParameterBufferV2_perKernel, cudaLaunchDeviceV2_init_perWarp, cudaLaunchDevicV2_perKernel>Default 7200,8000,100,12000,1600
DRAM Timing Options:
nbk                                    16 # number of banks
CCD                                     2 # column to column delay
RRD                                     6 # minimal delay between activation of rows in different banks
RCD                                    12 # row to column delay
RAS                                    28 # time needed to activate row
RP                                     12 # time needed to precharge (deactivate) row
RC                                     40 # row cycle time
CDLR                                    5 # switching from write to read (changes tWTR)
WR                                     12 # last data-in to row precharge
CL                                     12 # CAS latency
WL                                      4 # Write latency
nbkgrp                                  1 # number of bank groups
CCDL                                    0 # column to column delay between accesses to different bank groups
RTPL                                    0 # read to precharge delay between accesses to different bank groups
Total number of memory sub partition = 22
addr_dec_mask[CHIP]  = 0000000000000000 	high:64 low:0
addr_dec_mask[BK]    = 0000000000007080 	high:15 low:7
addr_dec_mask[ROW]   = 000000000fff8000 	high:28 low:15
addr_dec_mask[COL]   = 0000000000000f7f 	high:12 low:0
addr_dec_mask[BURST] = 000000000000001f 	high:5 low:0
sub_partition_id_mask = 0000000000000080
GPGPU-Sim uArch: clock freqs: 1481000000.000000:2962000000.000000:1481000000.000000:2750000000.000000
GPGPU-Sim uArch: clock periods: 0.00000000067521944632:0.00000000033760972316:0.00000000067521944632:0.00000000036363636364
*** Initializing Memory Statistics ***
GPGPU-Sim uArch: interconnect node map (shaderID+MemID to icntID)
GPGPU-Sim uArch: Memory nodes ID start from index: 28
GPGPU-Sim uArch:    0   1   2   3   4   5   6
GPGPU-Sim uArch:    7   8   9  10  11  12  13
GPGPU-Sim uArch:   14  15  16  17  18  19  20
GPGPU-Sim uArch:   21  22  23  24  25  26  27
GPGPU-Sim uArch:   28  29  30  31  32  33  34
GPGPU-Sim uArch:   35  36  37  38  39  40  41
GPGPU-Sim uArch:   42  43  44  45  46  47  48
GPGPU-Sim uArch:   49
GPGPU-Sim uArch: interconnect node reverse map (icntID to shaderID+MemID)
GPGPU-Sim uArch: Memory nodes start from ID: 28
GPGPU-Sim uArch:    0   1   2   3   4   5   6
GPGPU-Sim uArch:    7   8   9  10  11  12  13
GPGPU-Sim uArch:   14  15  16  17  18  19  20
GPGPU-Sim uArch:   21  22  23  24  25  26  27
GPGPU-Sim uArch:   28  29  30  31  32  33  34
GPGPU-Sim uArch:   35  36  37  38  39  40  41
GPGPU-Sim uArch:   42  43  44  45  46  47  48
GPGPU-Sim uArch:   49
b7f7bf958719446fd2aef73724391b5e  /home/gpuser/Documents/gpgpu-sim_UVM_pcie5.0/benchmarks/Managed/stencil/main
GPGPU-Sim uArch: performance model initialization complete.
GPGPU-Sim PTX: __cudaRegisterFatBinary, fat_cubin_handle = 1, filename=default
self exe links to: /home/gpuser/Documents/gpgpu-sim_UVM_pcie5.0/benchmarks/Managed/stencil/main
Running md5sum using "md5sum /home/gpuser/Documents/gpgpu-sim_UVM_pcie5.0/benchmarks/Managed/stencil/main "
Parsing file _cuobjdump_complete_output_2O5tMW
######### cuobjdump parser ########
## Adding new section ELF
Adding arch: sm_20
Adding identifier: default
## Adding new section ELF
Adding arch: sm_20
Adding identifier: default
## Adding new section PTX
Adding ptx filename: _cuobjdump_1.ptx
Adding arch: sm_20
Adding identifier: default
## Adding new section ELF
Adding arch: sm_20
Adding identifier: default
## Adding new section PTX
Adding ptx filename: _cuobjdump_2.ptx
Adding arch: sm_20
Adding identifier: default
Done parsing!!!
GPGPU-Sim PTX: __cudaRegisterFatBinary, fat_cubin_handle = 2, filename=default
GPGPU-Sim PTX: __cudaRegisterFunction _Z24block2D_hybrid_coarsen_xffPfS_iii : hostFun 0x0x401496, fat_cubin_handle = 2
GPGPU-Sim PTX: allocating shared region for "sh_A0" from 0x0 to 0x0 (shared memory space)
GPGPU-Sim PTX: instruction assembly for function '_Z24block2D_hybrid_coarsen_xffPfS_iii'...   done.
GPGPU-Sim PTX: finding reconvergence points for '_Z24block2D_hybrid_coarsen_xffPfS_iii'...
GPGPU-Sim PTX: Finding dominators for '_Z24block2D_hybrid_coarsen_xffPfS_iii'...
GPGPU-Sim PTX: Finding immediate dominators for '_Z24block2D_hybrid_coarsen_xffPfS_iii'...
GPGPU-Sim PTX: Finding postdominators for '_Z24block2D_hybrid_coarsen_xffPfS_iii'...
GPGPU-Sim PTX: Finding immediate postdominators for '_Z24block2D_hybrid_coarsen_xffPfS_iii'...
GPGPU-Sim PTX: pre-decoding instructions for '_Z24block2D_hybrid_coarsen_xffPfS_iii'...
GPGPU-Sim PTX: reconvergence points for _Z24block2D_hybrid_coarsen_xffPfS_iii...
GPGPU-Sim PTX:  1 (potential) branch divergence @  PC=0x170 (_2.ptx:82) @!%p13 bra BB0_2;
GPGPU-Sim PTX:    immediate post dominator      @  PC=0x200 (_2.ptx:104) mov.f32 %f64, %f69;
GPGPU-Sim PTX:  2 (potential) branch divergence @  PC=0x178 (_2.ptx:83) bra.uni BB0_1;
GPGPU-Sim PTX:    immediate post dominator      @  PC=0x180 (_2.ptx:86) mad.lo.s32 %r33, %r3, %r6, %r1;
GPGPU-Sim PTX:  3 (potential) branch divergence @  PC=0x228 (_2.ptx:109) @!%p16 bra BB0_4;
GPGPU-Sim PTX:    immediate post dominator      @  PC=0x2b0 (_2.ptx:130) mov.f32 %f67, %f68;
GPGPU-Sim PTX:  4 (potential) branch divergence @  PC=0x230 (_2.ptx:110) bra.uni BB0_3;
GPGPU-Sim PTX:    immediate post dominator      @  PC=0x238 (_2.ptx:113) mad.lo.s32 %r58, %r3, %r6, %r2;
GPGPU-Sim PTX:  5 (potential) branch divergence @  PC=0x2d0 (_2.ptx:134) @%p17 bra BB0_33;
GPGPU-Sim PTX:    immediate post dominator      @  PC=0x868 (_2.ptx:370) ret;
GPGPU-Sim PTX:  6 (potential) branch divergence @  PC=0x300 (_2.ptx:143) @!%p13 bra BB0_8;
GPGPU-Sim PTX:    immediate post dominator      @  PC=0x348 (_2.ptx:156) @!%p5 bra BB0_19;
GPGPU-Sim PTX:  7 (potential) branch divergence @  PC=0x308 (_2.ptx:144) bra.uni BB0_7;
GPGPU-Sim PTX:    immediate post dominator      @  PC=0x310 (_2.ptx:147) add.s32 %r75, %r273, 1;
GPGPU-Sim PTX:  8 (potential) branch divergence @  PC=0x348 (_2.ptx:156) @!%p5 bra BB0_19;
GPGPU-Sim PTX:    immediate post dominator      @  PC=0x590 (_2.ptx:251) @!%p16 bra BB0_21;
GPGPU-Sim PTX:  9 (potential) branch divergence @  PC=0x350 (_2.ptx:157) bra.uni BB0_9;
GPGPU-Sim PTX:    immediate post dominator      @  PC=0x358 (_2.ptx:160) add.s32 %r89, %r13, -1;
GPGPU-Sim PTX: 10 (potential) branch divergence @  PC=0x368 (_2.ptx:162) @%p21 bra BB0_11;
GPGPU-Sim PTX:    immediate post dominator      @  PC=0x3e8 (_2.ptx:184) setp.eq.s32%p22, %r15, 0;
GPGPU-Sim PTX: 11 (potential) branch divergence @  PC=0x370 (_2.ptx:163) bra.uni BB0_10;
GPGPU-Sim PTX:    immediate post dominator      @  PC=0x3b8 (_2.ptx:176) shl.b32 %r92, %r11, 1;
GPGPU-Sim PTX: 12 (potential) branch divergence @  PC=0x3b0 (_2.ptx:173) bra.uni BB0_12;
GPGPU-Sim PTX:    immediate post dominator      @  PC=0x3e8 (_2.ptx:184) setp.eq.s32%p22, %r15, 0;
GPGPU-Sim PTX: 13 (potential) branch divergence @  PC=0x3f0 (_2.ptx:185) @%p22 bra BB0_14;
GPGPU-Sim PTX:    immediate post dominator      @  PC=0x470 (_2.ptx:207) setp.eq.s32%p23, %r12, 0;
GPGPU-Sim PTX: 14 (potential) branch divergence @  PC=0x3f8 (_2.ptx:186) bra.uni BB0_13;
GPGPU-Sim PTX:    immediate post dominator      @  PC=0x440 (_2.ptx:199) shl.b32 %r111, %r11, 1;
GPGPU-Sim PTX: 15 (potential) branch divergence @  PC=0x438 (_2.ptx:196) bra.uni BB0_15;
GPGPU-Sim PTX:    immediate post dominator      @  PC=0x470 (_2.ptx:207) setp.eq.s32%p23, %r12, 0;
GPGPU-Sim PTX: 16 (potential) branch divergence @  PC=0x478 (_2.ptx:208) @%p23 bra BB0_17;
GPGPU-Sim PTX:    immediate post dominator      @  PC=0x4f0 (_2.ptx:229) mad.lo.s32 %r149, %r273, %r7, %r3;
GPGPU-Sim PTX: 17 (potential) branch divergence @  PC=0x480 (_2.ptx:209) bra.uni BB0_16;
GPGPU-Sim PTX:    immediate post dominator      @  PC=0x4c8 (_2.ptx:222) shl.b32 %r129, %r11, 1;
GPGPU-Sim PTX: 18 (potential) branch divergence @  PC=0x4c0 (_2.ptx:219) bra.uni BB0_18;
GPGPU-Sim PTX:    immediate post dominator      @  PC=0x4f0 (_2.ptx:229) mad.lo.s32 %r149, %r273, %r7, %r3;
GPGPU-Sim PTX: 19 (potential) branch divergence @  PC=0x590 (_2.ptx:251) @!%p16 bra BB0_21;
GPGPU-Sim PTX:    immediate post dominator      @  PC=0x5d8 (_2.ptx:264) @!%p4 bra BB0_32;
GPGPU-Sim PTX: 20 (potential) branch divergence @  PC=0x598 (_2.ptx:252) bra.uni BB0_20;
GPGPU-Sim PTX:    immediate post dominator      @  PC=0x5a0 (_2.ptx:255) add.s32 %r168, %r273, 1;
GPGPU-Sim PTX: 21 (potential) branch divergence @  PC=0x5d8 (_2.ptx:264) @!%p4 bra BB0_32;
GPGPU-Sim PTX:    immediate post dominator      @  PC=0x820 (_2.ptx:359) bar.sync 0;
GPGPU-Sim PTX: 22 (potential) branch divergence @  PC=0x5e0 (_2.ptx:265) bra.uni BB0_22;
GPGPU-Sim PTX:    immediate post dominator      @  PC=0x5e8 (_2.ptx:268) add.s32 %r183, %r13, -1;
GPGPU-Sim PTX: 23 (potential) branch divergence @  PC=0x5f8 (_2.ptx:270) @%p27 bra BB0_24;
GPGPU-Sim PTX:    immediate post dominator      @  PC=0x678 (_2.ptx:292) setp.eq.s32%p28, %r15, 0;
GPGPU-Sim PTX: 24 (potential) branch divergence @  PC=0x600 (_2.ptx:271) bra.uni BB0_23;
GPGPU-Sim PTX:    immediate post dominator      @  PC=0x648 (_2.ptx:284) shl.b32 %r186, %r11, 1;
GPGPU-Sim PTX: 25 (potential) branch divergence @  PC=0x640 (_2.ptx:281) bra.uni BB0_25;
GPGPU-Sim PTX:    immediate post dominator      @  PC=0x678 (_2.ptx:292) setp.eq.s32%p28, %r15, 0;
GPGPU-Sim PTX: 26 (potential) branch divergence @  PC=0x680 (_2.ptx:293) @%p28 bra BB0_27;
GPGPU-Sim PTX:    immediate post dominator      @  PC=0x700 (_2.ptx:315) shl.b32 %r228, %r11, 1;
GPGPU-Sim PTX: 27 (potential) branch divergence @  PC=0x688 (_2.ptx:294) bra.uni BB0_26;
GPGPU-Sim PTX:    immediate post dominator      @  PC=0x6d0 (_2.ptx:307) shl.b32 %r207, %r11, 1;
GPGPU-Sim PTX: 28 (potential) branch divergence @  PC=0x6c8 (_2.ptx:304) bra.uni BB0_28;
GPGPU-Sim PTX:    immediate post dominator      @  PC=0x700 (_2.ptx:315) shl.b32 %r228, %r11, 1;
GPGPU-Sim PTX: 29 (potential) branch divergence @  PC=0x718 (_2.ptx:318) @%p29 bra BB0_30;
GPGPU-Sim PTX:    immediate post dominator      @  PC=0x788 (_2.ptx:338) mad.lo.s32 %r253, %r273, %r7, %r3;
GPGPU-Sim PTX: 30 (potential) branch divergence @  PC=0x720 (_2.ptx:319) bra.uni BB0_29;
GPGPU-Sim PTX:    immediate post dominator      @  PC=0x768 (_2.ptx:332) mad.lo.s32 %r235, %r228, %r15, %r19;
GPGPU-Sim PTX: 31 (potential) branch divergence @  PC=0x760 (_2.ptx:329) bra.uni BB0_31;
GPGPU-Sim PTX:    immediate post dominator      @  PC=0x788 (_2.ptx:338) mad.lo.s32 %r253, %r273, %r7, %r3;
GPGPU-Sim PTX: 32 (potential) branch divergence @  PC=0x860 (_2.ptx:367) @%p30 bra BB0_6;
GPGPU-Sim PTX:    immediate post dominator      @  PC=0x868 (_2.ptx:370) ret;
GPGPU-Sim PTX: ... end of reconvergence points for _Z24block2D_hybrid_coarsen_xffPfS_iii
GPGPU-Sim PTX: ... done pre-decoding instructions for '_Z24block2D_hybrid_coarsen_xffPfS_iii'.
GPGPU-Sim PTX: finished parsing EMBEDDED .ptx file _2.ptx
Adding _cuobjdump_1.ptx with cubin handle 2
GPGPU-Sim PTX: extracting embedded .ptx to temporary file "_ptx_IrBVll"
Running: cat _ptx_IrBVll | sed 's/.version 1.5/.version 1.4/' | sed 's/, texmode_independent//' | sed 's/\(\.extern \.const\[1\] .b8 \w\+\)\[\]/\1\[1\]/' | sed 's/const\[.\]/const\[0\]/g' > _ptx2_GnqqVJ
GPGPU-Sim PTX: generating ptxinfo using "$CUDA_INSTALL_PATH/bin/ptxas --gpu-name=sm_20 -v _ptx2_GnqqVJ --output-file  /dev/null 2> _ptx_IrBVllinfo"
GPGPU-Sim PTX: Kernel '_Z24block2D_hybrid_coarsen_xffPfS_iii' : regs=20, lmem=0, smem=0, cmem=68
GPGPU-Sim PTX: removing ptxinfo using "rm -f _ptx_IrBVll _ptx2_GnqqVJ _ptx_IrBVllinfo"
GPGPU-Sim PTX: loading globals with explicit initializers... 
GPGPU-Sim PTX: finished loading globals (0 bytes total).
GPGPU-Sim PTX: loading constants with explicit initializers...  done.
CUDA accelerated 7 points stencil codes****
Original version by Li-Wen Chang <lchang20@illinois.edu> and I-Jui Sung<sung10@illinois.edu>
This version maintained by Chris Rodrigues  ***********

GPGPU-Sim PTX: cudaLaunch for 0x0x401496 (mode=performance simulation) on stream 0
GPGPU-Sim PTX: pushing kernel '_Z24block2D_hybrid_coarsen_xffPfS_iii' to stream 0, gridDim= (2,32,1) blockDim = (32,4,1) 
GPGPU-Sim uArch: Shader 1 bind to kernel 1 '_Z24block2D_hybrid_coarsen_xffPfS_iii'
GPGPU-Sim uArch: CTA/core = 16, limited by: threads
GPGPU-Sim uArch: Shader 2 bind to kernel 1 '_Z24block2D_hybrid_coarsen_xffPfS_iii'
GPGPU-Sim uArch: Shader 3 bind to kernel 1 '_Z24block2D_hybrid_coarsen_xffPfS_iii'
GPGPU-Sim uArch: Shader 4 bind to kernel 1 '_Z24block2D_hybrid_coarsen_xffPfS_iii'
GPGPU-Sim uArch: Shader 5 bind to kernel 1 '_Z24block2D_hybrid_coarsen_xffPfS_iii'
GPGPU-Sim uArch: Shader 6 bind to kernel 1 '_Z24block2D_hybrid_coarsen_xffPfS_iii'
GPGPU-Sim uArch: Shader 7 bind to kernel 1 '_Z24block2D_hybrid_coarsen_xffPfS_iii'
GPGPU-Sim uArch: Shader 8 bind to kernel 1 '_Z24block2D_hybrid_coarsen_xffPfS_iii'
GPGPU-Sim uArch: Shader 9 bind to kernel 1 '_Z24block2D_hybrid_coarsen_xffPfS_iii'
GPGPU-Sim uArch: Shader 10 bind to kernel 1 '_Z24block2D_hybrid_coarsen_xffPfS_iii'
GPGPU-Sim uArch: Shader 11 bind to kernel 1 '_Z24block2D_hybrid_coarsen_xffPfS_iii'
GPGPU-Sim uArch: Shader 12 bind to kernel 1 '_Z24block2D_hybrid_coarsen_xffPfS_iii'
GPGPU-Sim uArch: Shader 13 bind to kernel 1 '_Z24block2D_hybrid_coarsen_xffPfS_iii'
GPGPU-Sim uArch: Shader 14 bind to kernel 1 '_Z24block2D_hybrid_coarsen_xffPfS_iii'
GPGPU-Sim uArch: Shader 15 bind to kernel 1 '_Z24block2D_hybrid_coarsen_xffPfS_iii'
GPGPU-Sim uArch: Shader 16 bind to kernel 1 '_Z24block2D_hybrid_coarsen_xffPfS_iii'
GPGPU-Sim uArch: Shader 17 bind to kernel 1 '_Z24block2D_hybrid_coarsen_xffPfS_iii'
GPGPU-Sim uArch: Shader 18 bind to kernel 1 '_Z24block2D_hybrid_coarsen_xffPfS_iii'
GPGPU-Sim uArch: Shader 19 bind to kernel 1 '_Z24block2D_hybrid_coarsen_xffPfS_iii'
GPGPU-Sim uArch: Shader 20 bind to kernel 1 '_Z24block2D_hybrid_coarsen_xffPfS_iii'
GPGPU-Sim uArch: Shader 21 bind to kernel 1 '_Z24block2D_hybrid_coarsen_xffPfS_iii'
GPGPU-Sim uArch: Shader 22 bind to kernel 1 '_Z24block2D_hybrid_coarsen_xffPfS_iii'
GPGPU-Sim uArch: Shader 23 bind to kernel 1 '_Z24block2D_hybrid_coarsen_xffPfS_iii'
GPGPU-Sim uArch: Shader 24 bind to kernel 1 '_Z24block2D_hybrid_coarsen_xffPfS_iii'
GPGPU-Sim uArch: Shader 25 bind to kernel 1 '_Z24block2D_hybrid_coarsen_xffPfS_iii'
GPGPU-Sim uArch: Shader 26 bind to kernel 1 '_Z24block2D_hybrid_coarsen_xffPfS_iii'
GPGPU-Sim uArch: Shader 27 bind to kernel 1 '_Z24block2D_hybrid_coarsen_xffPfS_iii'
GPGPU-Sim uArch: Shader 0 bind to kernel 1 '_Z24block2D_hybrid_coarsen_xffPfS_iii'
Destroy streams for kernel 1: size 0
kernel_name = _Z24block2D_hybrid_coarsen_xffPfS_iii 
kernel_launch_uid = 1 
gpu_sim_cycle = 141694
gpu_sim_insn = 28848876
gpu_ipc =     203.5998
gpu_tot_sim_cycle = 363844
gpu_tot_sim_insn = 28848876
gpu_tot_ipc =      79.2891
gpu_tot_issued_cta = 64
max_total_param_size = 0
gpu_stall_dramfull = 83902
gpu_stall_icnt2sh    = 2194
partiton_reqs_in_parallel = 3033366
partiton_reqs_in_parallel_total    = 0
partiton_level_parallism =      21.4079
partiton_level_parallism_total  =       8.3370
partiton_reqs_in_parallel_util = 3033366
partiton_reqs_in_parallel_util_total    = 0
gpu_sim_cycle_parition_util = 140724
gpu_tot_sim_cycle_parition_util    = 0
partiton_level_parallism_util =      21.5554
partiton_level_parallism_util_total  =      21.5554
partiton_replys_in_parallel = 47008
partiton_replys_in_parallel_total    = 0
L2_BW  =      31.4453 GB/Sec
L2_BW_total  =      12.2459 GB/Sec
gpu_total_sim_rate=85859

========= Core cache stats =========
L1I_cache:
	L1I_total_cache_accesses = 579228
	L1I_total_cache_misses = 3324
	L1I_total_cache_miss_rate = 0.0057
	L1I_total_cache_pending_hits = 0
	L1I_total_cache_reservation_fails = 0
L1D_cache:
	L1D_cache_core[0]: Access = 0, Miss = 0, Miss_rate = -nan, Pending_hits = 0, Reservation_fails = 0
	L1D_cache_core[1]: Access = 0, Miss = 0, Miss_rate = -nan, Pending_hits = 0, Reservation_fails = 0
	L1D_cache_core[2]: Access = 0, Miss = 0, Miss_rate = -nan, Pending_hits = 0, Reservation_fails = 0
	L1D_cache_core[3]: Access = 0, Miss = 0, Miss_rate = -nan, Pending_hits = 0, Reservation_fails = 0
	L1D_cache_core[4]: Access = 0, Miss = 0, Miss_rate = -nan, Pending_hits = 0, Reservation_fails = 0
	L1D_cache_core[5]: Access = 0, Miss = 0, Miss_rate = -nan, Pending_hits = 0, Reservation_fails = 0
	L1D_cache_core[6]: Access = 0, Miss = 0, Miss_rate = -nan, Pending_hits = 0, Reservation_fails = 0
	L1D_cache_core[7]: Access = 0, Miss = 0, Miss_rate = -nan, Pending_hits = 0, Reservation_fails = 0
	L1D_cache_core[8]: Access = 0, Miss = 0, Miss_rate = -nan, Pending_hits = 0, Reservation_fails = 0
	L1D_cache_core[9]: Access = 0, Miss = 0, Miss_rate = -nan, Pending_hits = 0, Reservation_fails = 0
	L1D_cache_core[10]: Access = 0, Miss = 0, Miss_rate = -nan, Pending_hits = 0, Reservation_fails = 0
	L1D_cache_core[11]: Access = 0, Miss = 0, Miss_rate = -nan, Pending_hits = 0, Reservation_fails = 0
	L1D_cache_core[12]: Access = 0, Miss = 0, Miss_rate = -nan, Pending_hits = 0, Reservation_fails = 0
	L1D_cache_core[13]: Access = 0, Miss = 0, Miss_rate = -nan, Pending_hits = 0, Reservation_fails = 0
	L1D_cache_core[14]: Access = 0, Miss = 0, Miss_rate = -nan, Pending_hits = 0, Reservation_fails = 0
	L1D_cache_core[15]: Access = 0, Miss = 0, Miss_rate = -nan, Pending_hits = 0, Reservation_fails = 0
	L1D_cache_core[16]: Access = 0, Miss = 0, Miss_rate = -nan, Pending_hits = 0, Reservation_fails = 0
	L1D_cache_core[17]: Access = 0, Miss = 0, Miss_rate = -nan, Pending_hits = 0, Reservation_fails = 0
	L1D_cache_core[18]: Access = 0, Miss = 0, Miss_rate = -nan, Pending_hits = 0, Reservation_fails = 0
	L1D_cache_core[19]: Access = 0, Miss = 0, Miss_rate = -nan, Pending_hits = 0, Reservation_fails = 0
	L1D_cache_core[20]: Access = 0, Miss = 0, Miss_rate = -nan, Pending_hits = 0, Reservation_fails = 0
	L1D_cache_core[21]: Access = 0, Miss = 0, Miss_rate = -nan, Pending_hits = 0, Reservation_fails = 0
	L1D_cache_core[22]: Access = 0, Miss = 0, Miss_rate = -nan, Pending_hits = 0, Reservation_fails = 0
	L1D_cache_core[23]: Access = 0, Miss = 0, Miss_rate = -nan, Pending_hits = 0, Reservation_fails = 0
	L1D_cache_core[24]: Access = 0, Miss = 0, Miss_rate = -nan, Pending_hits = 0, Reservation_fails = 0
	L1D_cache_core[25]: Access = 0, Miss = 0, Miss_rate = -nan, Pending_hits = 0, Reservation_fails = 0
	L1D_cache_core[26]: Access = 0, Miss = 0, Miss_rate = -nan, Pending_hits = 0, Reservation_fails = 0
	L1D_cache_core[27]: Access = 0, Miss = 0, Miss_rate = -nan, Pending_hits = 0, Reservation_fails = 0
	L1D_total_cache_accesses = 0
	L1D_total_cache_misses = 0
	L1D_total_cache_pending_hits = 0
	L1D_total_cache_reservation_fails = 0
	L1D_cache_data_port_util = 0.000
	L1D_cache_fill_port_util = 0.000
L1C_cache:
	L1C_total_cache_accesses = 1792
	L1C_total_cache_misses = 1632
	L1C_total_cache_miss_rate = 0.9107
	L1C_total_cache_pending_hits = 0
	L1C_total_cache_reservation_fails = 1444
L1T_cache:
	L1T_total_cache_accesses = 0
	L1T_total_cache_misses = 0
	L1T_total_cache_pending_hits = 0
	L1T_total_cache_reservation_fails = 0

Total_core_cache_stats:
	Total_core_cache_stats_breakdown[GLOBAL_ACC_R][HIT] = 0
	Total_core_cache_stats_breakdown[GLOBAL_ACC_R][HIT_RESERVED] = 0
	Total_core_cache_stats_breakdown[GLOBAL_ACC_R][MISS] = 0
	Total_core_cache_stats_breakdown[GLOBAL_ACC_R][RESERVATION_FAIL] = 0
	Total_core_cache_stats_breakdown[LOCAL_ACC_R][HIT] = 0
	Total_core_cache_stats_breakdown[LOCAL_ACC_R][HIT_RESERVED] = 0
	Total_core_cache_stats_breakdown[LOCAL_ACC_R][MISS] = 0
	Total_core_cache_stats_breakdown[LOCAL_ACC_R][RESERVATION_FAIL] = 0
	Total_core_cache_stats_breakdown[CONST_ACC_R][HIT] = 160
	Total_core_cache_stats_breakdown[CONST_ACC_R][HIT_RESERVED] = 0
	Total_core_cache_stats_breakdown[CONST_ACC_R][MISS] = 1632
	Total_core_cache_stats_breakdown[CONST_ACC_R][RESERVATION_FAIL] = 1444
	Total_core_cache_stats_breakdown[TEXTURE_ACC_R][HIT] = 0
	Total_core_cache_stats_breakdown[TEXTURE_ACC_R][HIT_RESERVED] = 0
	Total_core_cache_stats_breakdown[TEXTURE_ACC_R][MISS] = 0
	Total_core_cache_stats_breakdown[TEXTURE_ACC_R][RESERVATION_FAIL] = 0
	Total_core_cache_stats_breakdown[GLOBAL_ACC_W][HIT] = 0
	Total_core_cache_stats_breakdown[GLOBAL_ACC_W][HIT_RESERVED] = 0
	Total_core_cache_stats_breakdown[GLOBAL_ACC_W][MISS] = 0
	Total_core_cache_stats_breakdown[GLOBAL_ACC_W][RESERVATION_FAIL] = 0
	Total_core_cache_stats_breakdown[LOCAL_ACC_W][HIT] = 0
	Total_core_cache_stats_breakdown[LOCAL_ACC_W][HIT_RESERVED] = 0
	Total_core_cache_stats_breakdown[LOCAL_ACC_W][MISS] = 0
	Total_core_cache_stats_breakdown[LOCAL_ACC_W][RESERVATION_FAIL] = 0
	Total_core_cache_stats_breakdown[L1_WRBK_ACC][HIT] = 0
	Total_core_cache_stats_breakdown[L1_WRBK_ACC][HIT_RESERVED] = 0
	Total_core_cache_stats_breakdown[L1_WRBK_ACC][MISS] = 0
	Total_core_cache_stats_breakdown[L1_WRBK_ACC][RESERVATION_FAIL] = 0
	Total_core_cache_stats_breakdown[L2_WRBK_ACC][HIT] = 0
	Total_core_cache_stats_breakdown[L2_WRBK_ACC][HIT_RESERVED] = 0
	Total_core_cache_stats_breakdown[L2_WRBK_ACC][MISS] = 0
	Total_core_cache_stats_breakdown[L2_WRBK_ACC][RESERVATION_FAIL] = 0
	Total_core_cache_stats_breakdown[INST_ACC_R][HIT] = 575904
	Total_core_cache_stats_breakdown[INST_ACC_R][HIT_RESERVED] = 0
	Total_core_cache_stats_breakdown[INST_ACC_R][MISS] = 3324
	Total_core_cache_stats_breakdown[INST_ACC_R][RESERVATION_FAIL] = 0
	Total_core_cache_stats_breakdown[L1_WR_ALLOC_R][HIT] = 0
	Total_core_cache_stats_breakdown[L1_WR_ALLOC_R][HIT_RESERVED] = 0
	Total_core_cache_stats_breakdown[L1_WR_ALLOC_R][MISS] = 0
	Total_core_cache_stats_breakdown[L1_WR_ALLOC_R][RESERVATION_FAIL] = 0
	Total_core_cache_stats_breakdown[L2_WR_ALLOC_R][HIT] = 0
	Total_core_cache_stats_breakdown[L2_WR_ALLOC_R][HIT_RESERVED] = 0
	Total_core_cache_stats_breakdown[L2_WR_ALLOC_R][MISS] = 0
	Total_core_cache_stats_breakdown[L2_WR_ALLOC_R][RESERVATION_FAIL] = 0
	Total_core_cache_stats_breakdown[CONST_ACC_R][TOTAL_ACCESS] = 1792
	Total_core_cache_stats_breakdown[INST_ACC_R][TOTAL_ACCESS] = 579228
Shader 0 warp_id issue ditsribution:
warp_id:
0, 1, 2, 3, 4, 5, 6, 7, 
distro:
4828, 4642, 4648, 4819, 4828, 4641, 4648, 4822, 
gpgpu_n_tot_thrd_icount = 33319424
gpgpu_n_tot_w_icount = 1041232
gpgpu_n_stall_shd_mem = 171936
gpgpu_n_mem_read_local = 0
gpgpu_n_mem_write_local = 0
gpgpu_n_mem_read_global = 31384
gpgpu_n_mem_write_global = 15120
gpgpu_n_mem_texture = 0
gpgpu_n_mem_const = 28
gpgpu_n_load_insn  = 766208
gpgpu_n_store_insn = 476280
gpgpu_n_shmem_insn = 3155288
gpgpu_n_tex_insn = 0
gpgpu_n_const_mem_insn = 0
gpgpu_n_param_mem_insn = 57344
gpgpu_n_shmem_bkconflict = 0
gpgpu_n_cache_bkconflict = 0
gpgpu_n_intrawarp_mshr_merge = 0
gpgpu_n_cmem_portconflict = 1444
gpgpu_stall_shd_mem[c_mem][bk_conf] = 1444
gpgpu_stall_shd_mem[c_mem][mshr_rc] = 0
gpgpu_stall_shd_mem[c_mem][icnt_rc] = 0
gpgpu_stall_shd_mem[c_mem][data_port_stall] = 0
gpgpu_stall_shd_mem[t_mem][mshr_rc] = 0
gpgpu_stall_shd_mem[t_mem][icnt_rc] = 0
gpgpu_stall_shd_mem[t_mem][data_port_stall] = 0
gpgpu_stall_shd_mem[s_mem][bk_conf] = 0
gpgpu_stall_shd_mem[gl_mem][bk_conf] = 0
gpgpu_stall_shd_mem[gl_mem][coal_stall] = 79
gpgpu_stall_shd_mem[gl_mem][data_port_stall] = 0
gpgpu_stall_shd_mem[g_mem_ld][mshr_rc] = 0
gpgpu_stall_shd_mem[g_mem_ld][icnt_rc] = 170413
gpgpu_stall_shd_mem[g_mem_ld][wb_icnt_rc] = 0
gpgpu_stall_shd_mem[g_mem_ld][wb_rsrv_fail] = 0
gpgpu_stall_shd_mem[g_mem_st][mshr_rc] = 0
gpgpu_stall_shd_mem[g_mem_st][icnt_rc] = 0
gpgpu_stall_shd_mem[g_mem_st][wb_icnt_rc] = 0
gpgpu_stall_shd_mem[g_mem_st][wb_rsrv_fail] = 0
gpgpu_stall_shd_mem[l_mem_ld][mshr_rc] = 0
gpgpu_stall_shd_mem[l_mem_ld][icnt_rc] = 0
gpgpu_stall_shd_mem[l_mem_ld][wb_icnt_rc] = 0
gpgpu_stall_shd_mem[l_mem_ld][wb_rsrv_fail] = 0
gpgpu_stall_shd_mem[l_mem_st][mshr_rc] = 0
gpgpu_stall_shd_mem[l_mem_st][icnt_rc] = 0
gpgpu_stall_shd_mem[l_mem_ld][wb_icnt_rc] = 0
gpgpu_stall_shd_mem[l_mem_ld][wb_rsrv_fail] = 0
gpu_reg_bank_conflict_stalls = 0
Warp Occupancy Distribution:
Stall:32308	W0_Idle:1183166	W0_Scoreboard:5811657	W1:60480	W2:0	W3:0	W4:0	W5:0	W6:0	W7:0	W8:0	W9:0	W10:0	W11:0	W12:0	W13:0	W14:0	W15:0	W16:0	W17:0	W18:0	W19:0	W20:0	W21:0	W22:0	W23:0	W24:0	W25:0	W26:0	W27:0	W28:0	W29:0	W30:0	W31:408180	W32:572572
traffic_breakdown_coretomem[CONST_ACC_R] = 224 {8:28,}
traffic_breakdown_coretomem[GLOBAL_ACC_R] = 251072 {8:31384,}
traffic_breakdown_coretomem[GLOBAL_ACC_W] = 2056320 {136:15120,}
traffic_breakdown_coretomem[INST_ACC_R] = 3808 {8:476,}
traffic_breakdown_memtocore[CONST_ACC_R] = 2016 {72:28,}
traffic_breakdown_memtocore[GLOBAL_ACC_R] = 3542464 {40:7560,136:23824,}
traffic_breakdown_memtocore[GLOBAL_ACC_W] = 120960 {8:15120,}
traffic_breakdown_memtocore[INST_ACC_R] = 64736 {136:476,}
maxmrqlatency = 1769 
maxdqlatency = 0 
maxmflatency = 39968 
averagemflatency = 5601 
max_icnt2mem_latency = 39704 
max_icnt2sh_latency = 363843 
mrq_lat_table:15026 	1171 	778 	1358 	1905 	2882 	3837 	6404 	9444 	3805 	32 	0 	0 	0 	0 	0 	0 	0 	0 	0 	0 	0 	0 	0 	0 	0 	0 	0 	0 	0 	0 	0 	
dq_lat_table:0 	0 	0 	0 	0 	0 	0 	0 	0 	0 	0 	0 	0 	0 	0 	0 	0 	0 	0 	0 	0 	0 	0 	0 	0 	0 	0 	0 	0 	0 	0 	0 	
mf_lat_table:0 	0 	0 	0 	0 	0 	0 	22112 	9306 	424 	345 	1673 	874 	4266 	7290 	242 	0 	0 	0 	0 	0 	0 	0 	0 	0 	0 	0 	0 	0 	0 	0 	0 	
icnt2mem_lat_table:0 	3 	22309 	305 	145 	27 	9477 	11 	11 	214 	273 	1869 	604 	4228 	7290 	242 	0 	0 	0 	0 	0 	0 	0 	0 	
icnt2sh_lat_table:0 	0 	25614 	5667 	131 	0 	0 	0 	0 	0 	0 	0 	0 	0 	0 	0 	0 	3052 	12068 	0 	0 	0 	0 	0 	
mf_lat_pw_table:0 	0 	0 	0 	0 	0 	0 	79 	11 	2 	3 	6 	4 	9 	13 	1 	0 	0 	0 	0 	0 	0 	0 	0 	0 	0 	0 	0 	0 	0 	0 	0 	
maximum concurrent accesses to same row:
dram[0]:        32        32        32        32        32        32        32        32        32        32        32        32        32        32        32        32 
dram[1]:        32        32        32        32        32        32        32        32        32        32        32        32        32        32        32        32 
dram[2]:        32        32        32        32        32        32        32        32        32        32        32        32        32        32        32        32 
dram[3]:        32        32        32        32        32        32        32        32        32        32        32        32        32        32        32        32 
dram[4]:        32        32        32        32        32        32        32        32        32        32        32        32        32        32        32        32 
dram[5]:        32        32        32        32        32        32        32        32        32        32        32        32        32        32        32        32 
dram[6]:        32        32        32        32        32        32        32        32        32        32        32        32        32        32        32        32 
dram[7]:        32        32        32        32        32        32        32        32        32        32        32        32        32        32        32        32 
dram[8]:        32        32        32        32        32        32        32        32        32        32        32        32        32        32        32        32 
dram[9]:        32        32        32        32        32        32        32        32        32        32        32        32        32        32        32        32 
dram[10]:        32        32        32        32        32        32        32        32        32        32        32        32        32        32        32        32 
maximum service time to same row:
dram[0]:     30783     30836     31652     32079     32079     32494     31399     31663     32211     32429     30509     30426     30047     30500     30923     31316 
dram[1]:     30812     30739     31720     32086     32044     32456     31401     31725     32267     32553     30451     30327     30178     30617     30914     31269 
dram[2]:     30711     31129     31720     31811     32145     32545     31415     31772     32294     32506     30494     30427     30169     30573     30953     31322 
dram[3]:     30769     31164     31726     31906     32099     32489     31383     31748     32391     32624     30500     30386     30181     30560     30953     31282 
dram[4]:     30672     31091     31734     31708     32136     32542     31413     31742     32313     32551     30604     30675     30147     30583     31032     31404 
dram[5]:     30856     31219     31755     32112     32094     32377     31416     31762     32322     32624     30624     30908     30186     30576     31018     31405 
dram[6]:     31011     31368     31757     32224     32237     32692     31411     31800     32254     32536     30626     31091     30144     30098     30939     31385 
dram[7]:     30930     31286     31789     32197     32090     32199     31426     31790     32369     32604     30671     30571     30149     30099     30987     31413 
dram[8]:     31027     31351     31815     32216     32184     32579     31397     31747     32286     32534     30627     30667     30189     30059     30950     31315 
dram[9]:     30802     31229     31727     32129     32008     32426     31393     31731     32177     32434     30526     30435     30078     29996     30941     31156 
dram[10]:     31012     31343     31786     32198     32151     32569     31415     31761     32243     32536     30529     30582     30132     30580     30844     30994 
average row accesses per activate:
dram[0]: 20.214285 20.142857 17.000000 17.000000 22.727272 22.727272 22.727272 22.727272 22.363636 22.363636 17.285715 17.285715 24.000000 24.000000 22.230770 22.230770 
dram[1]: 20.142857 20.142857 19.000000 19.000000 23.272728 23.272728 22.727272 22.727272 22.363636 22.363636 17.357143 17.357143 24.000000 24.000000 22.230770 24.000000 
dram[2]: 19.200001 18.000000 16.625000 16.625000 23.272728 23.272728 22.727272 22.727272 22.363636 22.363636 17.357143 17.357143 24.000000 24.000000 23.500000 23.500000 
dram[3]: 19.200001 20.571428 19.000000 19.000000 23.272728 23.272728 22.727272 22.727272 22.363636 22.363636 17.357143 17.357143 20.571428 24.000000 23.500000 23.500000 
dram[4]: 22.153847 22.153847 16.625000 16.625000 22.909090 22.909090 23.272728 23.272728 22.363636 22.363636 17.357143 17.357143 24.000000 24.000000 21.769230 21.769230 
dram[5]: 18.799999 20.142857 16.875000 16.875000 22.909090 22.909090 23.272728 23.272728 22.363636 22.363636 17.357143 17.357143 24.000000 24.000000 21.769230 21.769230 
dram[6]: 21.692308 21.692308 19.285715 19.285715 22.909090 22.909090 23.272728 23.272728 22.363636 22.363636 17.357143 17.357143 23.500000 23.500000 18.062500 18.062500 
dram[7]: 16.588236 16.588236 16.875000 16.875000 22.909090 22.909090 23.272728 23.272728 22.000000 22.000000 17.785715 17.785715 23.500000 23.500000 20.642857 20.642857 
dram[8]: 21.692308 21.692308 19.285715 19.285715 22.727272 22.727272 23.272728 23.272728 22.000000 22.000000 17.785715 17.785715 23.500000 23.500000 19.266666 20.642857 
dram[9]: 19.200001 19.200001 16.875000 16.875000 22.727272 22.727272 23.272728 23.272728 21.909090 21.909090 17.785715 17.785715 23.500000 23.500000 21.769230 20.214285 
dram[10]: 22.153847 22.153847 19.285715 19.285715 22.727272 22.727272 23.272728 23.272728 21.909090 21.909090 17.500000 17.500000 24.000000 24.000000 21.769230 20.214285 
average row locality = 46642/2239 = 20.831621
number of total memory accesses made:
dram[0]:         0         0         0         0         0         0         0         0         0         0         0         0         0         0         0         0 
dram[1]:         0         0         0         0         0         0         0         0         0         0         0         0         0         0         0         0 
dram[2]:         0         0         0         0         0         0         0         0         0         0         0         0         0         0         0         0 
dram[3]:         0         0         0         0         0         0         0         0         0         0         0         0         0         0         0         0 
dram[4]:         0         0         0         0         0         0         0         0         0         0         0         0         0         0         0         0 
dram[5]:         0         0         0         0         0         0         0         0         0         0         0         0         0         0         0         0 
dram[6]:         0         0         0         0         0         0         0         0         0         0         0         0         0         0         0         0 
dram[7]:         0         0         0         0         0         0         0         0         0         0         0         0         0         0         0         0 
dram[8]:         0         0         0         0         0         0         0         0         0         0         0         0         0         0         0         0 
dram[9]:         0         0         0         0         0         0         0         0         0         0         0         0         0         0         0         0 
dram[10]:         0         0         0         0         0         0         0         0         0         0         0         0         0         0         0         0 
total accesses: 0
min_bank_accesses = 0!
min_chip_accesses = 0!
number of total read accesses:
dram[0]:       190       189       184       184       173       173       173       173       166       166       162       162       192       192       193       193 
dram[1]:       189       189       181       181       176       176       173       173       166       166       163       163       192       192       193       192 
dram[2]:       192       192       181       181       176       176       173       173       166       166       163       163       192       192       189       189 
dram[3]:       192       192       181       181       176       176       173       173       166       166       163       163       192       192       189       189 
dram[4]:       192       192       181       181       174       174       176       176       166       166       163       163       192       192       190       190 
dram[5]:       189       189       183       183       174       174       176       176       166       166       163       163       192       192       190       190 
dram[6]:       189       189       183       183       174       174       176       176       166       166       163       163       189       189       193       193 
dram[7]:       189       189       183       183       174       174       176       176       164       164       166       166       189       189       193       193 
dram[8]:       189       189       183       183       173       173       176       176       164       164       166       166       189       189       193       193 
dram[9]:       192       192       183       183       173       173       176       176       163       163       166       166       189       189       190       190 
dram[10]:       192       192       183       183       173       173       176       176       163       163       164       164       192       192       190       190 
total reads: 31522
bank skew: 193/162 = 1.19
chip skew: 2868/2864 = 1.00
number of total write accesses:
dram[0]:        93        93        88        88        77        77        77        77        80        80        80        80        96        96        96        96 
dram[1]:        93        93        85        85        80        80        77        77        80        80        80        80        96        96        96        96 
dram[2]:        96        96        85        85        80        80        77        77        80        80        80        80        96        96        93        93 
dram[3]:        96        96        85        85        80        80        77        77        80        80        80        80        96        96        93        93 
dram[4]:        96        96        85        85        78        78        80        80        80        80        80        80        96        96        93        93 
dram[5]:        93        93        87        87        78        78        80        80        80        80        80        80        96        96        93        93 
dram[6]:        93        93        87        87        78        78        80        80        80        80        80        80        93        93        96        96 
dram[7]:        93        93        87        87        78        78        80        80        78        78        83        83        93        93        96        96 
dram[8]:        93        93        87        87        77        77        80        80        78        78        83        83        93        93        96        96 
dram[9]:        96        96        87        87        77        77        80        80        78        78        83        83        93        93        93        93 
dram[10]:        96        96        87        87        77        77        80        80        78        78        81        81        96        96        93        93 
total reads: 15120
bank skew: 96/77 = 1.25
chip skew: 1376/1374 = 1.00
average mf latency per bank:
dram[0]:       5407      4986      6114      5039      6356      4629      4812      4456      5729      4881      8830      6251      7174      5443      5475      5096
dram[1]:       5400      4958      6094      4993      6328      4638      4783      4424      5746      4874      8700      6244      7162      5428      5455      5093
dram[2]:       5465      5038      6058      4977      6335      4649      4831      4473      5735      4887      8688      6241      7044      5427      5440      5073
dram[3]:       5466      5037      6118      5031      6330      4639      4826      4466      5740      4880      8752      6328      7052      5420      5423      5062
dram[4]:       5462      5037      6101      5005      6242      4633      4839      4476      5726      4869      8733      6328      7046      5418      5415      5051
dram[5]:       5428      4986      6138      5021      6230      4623      4827      4462      5740      4874      8778      6363      7055      5419      5403      5033
dram[6]:       5410      4988      6130      5008      6188      4577      4825      4453      5742      4882      8757      6341      6974      5445      5461      5088
dram[7]:       5401      4971      6130      5004      6188      4583      4882      4462      5657      4789      8690      6258      6980      5449      5475      5092
dram[8]:       5396      4979      6288      5054      6259      4593      4876      4464      5639      4774      8717      6292      6955      5420      5471      5101
dram[9]:       5464      5047      6274      5051      6259      4591      4857      4470      5673      4810      8689      6243      6945      5423      5393      5020
dram[10]:       5470      5046      6242      5072      6245      4582      4849      4468      5672      4802      8996      6314      6983      5395      5401      5010
maximum mf latency per bank:
dram[0]:      30215     30228     29783     29393     29341     28869     28542     28210     28905     28504     39950     30621     39742     30421     30443     30157
dram[1]:      30056     29517     29918     29747     28992     28755     28383     27921     28786     28035     39946     30590     39755     30581     30154     29680
dram[2]:      30560     30410     29798     29355     29480     29025     28575     28185     28992     28626     39951     30573     39747     30396     30471     30156
dram[3]:      30309     29854     30033     29761     29390     29026     28668     28190     28600     28114     39957     30667     39748     30479     29988     29627
dram[4]:      30299     30288     29700     29261     29237     28872     28602     28267     28292     27680     39954     30627     39746     30583     30376     30000
dram[5]:      30203     30019     30266     29915     29119     28731     28567     28191     28524     28151     39968     30626     39756     30486     30089     29830
dram[6]:      30103     29652     30146     29944     29356     29042     28386     27890     28127     27781     39945     30692     39736     38324     30354     30010
dram[7]:      30251     29906     30286     29818     29033     28672     28537     28140     28920     28489     39952     30617     39765     39247     30257     29918
dram[8]:      29936     29439     29907     29558     29510     29169     28370     28057     28318     28054     39959     30553     39758     30499     30420     30104
dram[9]:      30251     30463     29700     29384     29077     28744     28466     28114     28854     28501     39948     30426     39759     30315     30339     30043
dram[10]:      30177     29590     29964     29708     29431     29115     28276     28014     28530     28119     39954     30679     39752     30458     30216     29769
Memory Partition 0: 
Cache L2_bank_000:
MSHR contents

Cache L2_bank_001:
MSHR contents

In Dram Latency Queue (total = 0): 
DRAM[0]: 16 bks, busW=4 BL=8 CL=12, tRRD=2 tCCD=6, tRCD=12 tRAS=28 tRP=12 tRC=40
n_cmd=263104 n_nop=245754 n_act=205 n_pre=189 n_req=4239 n_rd=11460 n_write=5496 bw_util=0.1289
n_activity=49650 dram_eff=0.683
bk0: 760a 248671i bk1: 756a 248793i bk2: 736a 248838i bk3: 736a 248869i bk4: 692a 250716i bk5: 692a 250861i bk6: 692a 250823i bk7: 692a 250829i bk8: 664a 250074i bk9: 664a 249936i bk10: 648a 249352i bk11: 648a 249764i bk12: 768a 248005i bk13: 768a 248015i bk14: 772a 247982i bk15: 772a 247738i 
dram_util_bins: 0 0 0 0 0 0 0 0 0 0
dram_eff_bins: 0 0 0 0 0 0 0 0 0 0
mrqq: max=64 avg=4.93316
Memory Partition 1: 
Cache L2_bank_002:
MSHR contents

Cache L2_bank_003:
MSHR contents

In Dram Latency Queue (total = 0): 
DRAM[1]: 16 bks, busW=4 BL=8 CL=12, tRRD=2 tCCD=6, tRCD=12 tRAS=28 tRP=12 tRC=40
n_cmd=263104 n_nop=245766 n_act=199 n_pre=183 n_req=4239 n_rd=11460 n_write=5496 bw_util=0.1289
n_activity=49751 dram_eff=0.6816
bk0: 756a 248751i bk1: 756a 249059i bk2: 724a 248702i bk3: 724a 249146i bk4: 704a 250358i bk5: 704a 250551i bk6: 692a 250754i bk7: 692a 251380i bk8: 664a 249930i bk9: 664a 250205i bk10: 652a 248710i bk11: 652a 249156i bk12: 768a 247759i bk13: 768a 248087i bk14: 772a 248078i bk15: 768a 248043i 
dram_util_bins: 0 0 0 0 0 0 0 0 0 0
dram_eff_bins: 0 0 0 0 0 0 0 0 0 0
mrqq: max=64 avg=4.93895
Memory Partition 2: 
Cache L2_bank_004:
MSHR contents

Cache L2_bank_005:
MSHR contents
MSHR: tag=0xc0391c80, atomic=0 1 entries : 0x7fe67ebd5fb0 :  mf: uid=642654, sid07:w02, part=2, addr=0xc0391c80, load , size=128, unknown  status = IN_PARTITION_DRAM (363839), 

In Dram Latency Queue (total = 0): 
DRAM[2]: 16 bks, busW=4 BL=8 CL=12, tRRD=2 tCCD=6, tRCD=12 tRAS=28 tRP=12 tRC=40
n_cmd=263104 n_nop=245758 n_act=205 n_pre=189 n_req=4238 n_rd=11456 n_write=5496 bw_util=0.1289
n_activity=49436 dram_eff=0.6858
bk0: 768a 247998i bk1: 768a 248617i bk2: 724a 249075i bk3: 724a 249092i bk4: 704a 250062i bk5: 704a 250316i bk6: 692a 250402i bk7: 692a 251201i bk8: 664a 249805i bk9: 664a 250013i bk10: 652a 250113i bk11: 652a 249904i bk12: 768a 248190i bk13: 768a 248088i bk14: 756a 248638i bk15: 756a 248596i 
dram_util_bins: 0 0 0 0 0 0 0 0 0 0
dram_eff_bins: 0 0 0 0 0 0 0 0 0 0
mrqq: max=64 avg=4.9546
Memory Partition 3: 
Cache L2_bank_006:
MSHR contents

Cache L2_bank_007:
MSHR contents
MSHR: tag=0xc0391280, atomic=0 1 entries : 0x7fe67e57d240 :  mf: uid=642976, sid05:w01, part=3, addr=0xc0391280, load , size=128, unknown  status = IN_PARTITION_DRAM (363843), 

In Dram Latency Queue (total = 0): 
DRAM[3]: 16 bks, busW=4 BL=8 CL=12, tRRD=2 tCCD=6, tRCD=12 tRAS=28 tRP=12 tRC=40
n_cmd=263104 n_nop=245767 n_act=201 n_pre=185 n_req=4238 n_rd=11455 n_write=5496 bw_util=0.1289
n_activity=49404 dram_eff=0.6862
bk0: 768a 248596i bk1: 767a 248352i bk2: 724a 249086i bk3: 724a 249244i bk4: 704a 250176i bk5: 704a 250293i bk6: 692a 250540i bk7: 692a 250780i bk8: 664a 249699i bk9: 664a 249887i bk10: 652a 248918i bk11: 652a 249407i bk12: 768a 247625i bk13: 768a 247629i bk14: 756a 248279i bk15: 756a 248265i 
dram_util_bins: 0 0 0 0 0 0 0 0 0 0
dram_eff_bins: 0 0 0 0 0 0 0 0 0 0
mrqq: max=64 avg=4.94611
Memory Partition 4: 
Cache L2_bank_008:
MSHR contents

Cache L2_bank_009:
MSHR contents
MSHR: tag=0xc03e7d80, atomic=0 1 entries : 0x7fe67ee5f140 :  mf: uid=644075, sid04:w06, part=4, addr=0xc03e7d80, load , size=128, unknown  status = IN_PARTITION_L2_FILL_QUEUE (363843), 

In Dram Latency Queue (total = 0): 
DRAM[4]: 16 bks, busW=4 BL=8 CL=12, tRRD=2 tCCD=6, tRCD=12 tRAS=28 tRP=12 tRC=40
n_cmd=263104 n_nop=245740 n_act=202 n_pre=186 n_req=4244 n_rd=11472 n_write=5504 bw_util=0.129
n_activity=49548 dram_eff=0.6852
bk0: 768a 248733i bk1: 768a 249358i bk2: 724a 248928i bk3: 724a 250075i bk4: 696a 250256i bk5: 696a 250190i bk6: 704a 250073i bk7: 704a 249944i bk8: 664a 249775i bk9: 664a 250123i bk10: 652a 249516i bk11: 652a 249717i bk12: 768a 247673i bk13: 768a 247621i bk14: 760a 249244i bk15: 760a 248807i 
dram_util_bins: 0 0 0 0 0 0 0 0 0 0
dram_eff_bins: 0 0 0 0 0 0 0 0 0 0
mrqq: max=64 avg=4.95149
Memory Partition 5: 
Cache L2_bank_010:
MSHR contents

Cache L2_bank_011:
MSHR contents

In Dram Latency Queue (total = 0): 
DRAM[5]: 16 bks, busW=4 BL=8 CL=12, tRRD=2 tCCD=6, tRCD=12 tRAS=28 tRP=12 tRC=40
n_cmd=263104 n_nop=245750 n_act=205 n_pre=189 n_req=4240 n_rd=11464 n_write=5496 bw_util=0.1289
n_activity=49487 dram_eff=0.6854
bk0: 756a 248733i bk1: 756a 249138i bk2: 732a 248750i bk3: 732a 249216i bk4: 696a 250839i bk5: 696a 250473i bk6: 704a 249936i bk7: 704a 249706i bk8: 664a 249803i bk9: 664a 250115i bk10: 652a 248994i bk11: 652a 248611i bk12: 768a 247285i bk13: 768a 247525i bk14: 760a 248437i bk15: 760a 248201i 
dram_util_bins: 0 0 0 0 0 0 0 0 0 0
dram_eff_bins: 0 0 0 0 0 0 0 0 0 0
mrqq: max=64 avg=4.93078
Memory Partition 6: 
Cache L2_bank_012:
MSHR contents

Cache L2_bank_013:
MSHR contents

In Dram Latency Queue (total = 0): 
DRAM[6]: 16 bks, busW=4 BL=8 CL=12, tRRD=2 tCCD=6, tRCD=12 tRAS=28 tRP=12 tRC=40
n_cmd=263104 n_nop=245752 n_act=204 n_pre=188 n_req=4240 n_rd=11464 n_write=5496 bw_util=0.1289
n_activity=49305 dram_eff=0.688
bk0: 756a 249114i bk1: 756a 249065i bk2: 732a 248806i bk3: 732a 248520i bk4: 696a 250617i bk5: 696a 250124i bk6: 704a 250192i bk7: 704a 250305i bk8: 664a 249373i bk9: 664a 249709i bk10: 652a 248844i bk11: 652a 248798i bk12: 756a 247404i bk13: 756a 247739i bk14: 772a 247916i bk15: 772a 247740i 
dram_util_bins: 0 0 0 0 0 0 0 0 0 0
dram_eff_bins: 0 0 0 0 0 0 0 0 0 0
mrqq: max=64 avg=4.93772
Memory Partition 7: 
Cache L2_bank_014:
MSHR contents

Cache L2_bank_015:
MSHR contents

In Dram Latency Queue (total = 0): 
DRAM[7]: 16 bks, busW=4 BL=8 CL=12, tRRD=2 tCCD=6, tRCD=12 tRAS=28 tRP=12 tRC=40
n_cmd=263104 n_nop=245720 n_act=212 n_pre=196 n_req=4244 n_rd=11472 n_write=5504 bw_util=0.129
n_activity=49474 dram_eff=0.6863
bk0: 756a 248381i bk1: 756a 248964i bk2: 732a 248317i bk3: 732a 248894i bk4: 696a 250415i bk5: 696a 250344i bk6: 704a 250294i bk7: 704a 250346i bk8: 656a 250166i bk9: 656a 249985i bk10: 664a 248130i bk11: 664a 248585i bk12: 756a 247324i bk13: 756a 247858i bk14: 772a 247933i bk15: 772a 247961i 
dram_util_bins: 0 0 0 0 0 0 0 0 0 0
dram_eff_bins: 0 0 0 0 0 0 0 0 0 0
mrqq: max=64 avg=4.90848
Memory Partition 8: 
Cache L2_bank_016:
MSHR contents

Cache L2_bank_017:
MSHR contents

In Dram Latency Queue (total = 0): 
DRAM[8]: 16 bks, busW=4 BL=8 CL=12, tRRD=2 tCCD=6, tRCD=12 tRAS=28 tRP=12 tRC=40
n_cmd=263104 n_nop=245758 n_act=201 n_pre=185 n_req=4240 n_rd=11464 n_write=5496 bw_util=0.1289
n_activity=49731 dram_eff=0.6821
bk0: 756a 248989i bk1: 756a 249090i bk2: 732a 248558i bk3: 732a 249035i bk4: 692a 250655i bk5: 692a 250365i bk6: 704a 250862i bk7: 704a 250181i bk8: 656a 250410i bk9: 656a 250481i bk10: 664a 248691i bk11: 664a 248513i bk12: 756a 247589i bk13: 756a 247692i bk14: 772a 247825i bk15: 772a 247998i 
dram_util_bins: 0 0 0 0 0 0 0 0 0 0
dram_eff_bins: 0 0 0 0 0 0 0 0 0 0
mrqq: max=64 avg=4.9204
Memory Partition 9: 
Cache L2_bank_018:
MSHR contents

Cache L2_bank_019:
MSHR contents

In Dram Latency Queue (total = 0): 
DRAM[9]: 16 bks, busW=4 BL=8 CL=12, tRRD=2 tCCD=6, tRCD=12 tRAS=28 tRP=12 tRC=40
n_cmd=263104 n_nop=245754 n_act=207 n_pre=191 n_req=4238 n_rd=11456 n_write=5496 bw_util=0.1289
n_activity=49588 dram_eff=0.6837
bk0: 768a 248033i bk1: 768a 248265i bk2: 732a 248258i bk3: 732a 248479i bk4: 692a 250245i bk5: 692a 250762i bk6: 704a 250247i bk7: 704a 249690i bk8: 652a 250237i bk9: 652a 249916i bk10: 664a 248516i bk11: 664a 248835i bk12: 756a 247958i bk13: 756a 247949i bk14: 760a 248114i bk15: 760a 248127i 
dram_util_bins: 0 0 0 0 0 0 0 0 0 0
dram_eff_bins: 0 0 0 0 0 0 0 0 0 0
mrqq: max=64 avg=4.93081
Memory Partition 10: 
Cache L2_bank_020:
MSHR contents

Cache L2_bank_021:
MSHR contents

In Dram Latency Queue (total = 0): 
DRAM[10]: 16 bks, busW=4 BL=8 CL=12, tRRD=2 tCCD=6, tRCD=12 tRAS=28 tRP=12 tRC=40
n_cmd=263104 n_nop=245754 n_act=199 n_pre=183 n_req=4242 n_rd=11464 n_write=5504 bw_util=0.129
n_activity=49633 dram_eff=0.6837
bk0: 768a 248158i bk1: 768a 248559i bk2: 732a 248557i bk3: 732a 248565i bk4: 692a 250873i bk5: 692a 250776i bk6: 704a 250316i bk7: 704a 250341i bk8: 652a 250268i bk9: 652a 250395i bk10: 656a 249034i bk11: 656a 249119i bk12: 768a 247575i bk13: 768a 247837i bk14: 760a 248021i bk15: 760a 248349i 
dram_util_bins: 0 0 0 0 0 0 0 0 0 0
dram_eff_bins: 0 0 0 0 0 0 0 0 0 0
mrqq: max=64 avg=4.9431

========= L2 cache stats =========
L2_cache_bank[0]: Access = 2169, Miss = 1433, Miss_rate = 0.661, Pending_hits = 31, Reservation_fails = 0
L2_cache_bank[1]: Access = 2140, Miss = 1432, Miss_rate = 0.669, Pending_hits = 111, Reservation_fails = 0
L2_cache_bank[2]: Access = 2141, Miss = 1433, Miss_rate = 0.669, Pending_hits = 2, Reservation_fails = 0
L2_cache_bank[3]: Access = 2114, Miss = 1432, Miss_rate = 0.677, Pending_hits = 111, Reservation_fails = 0
L2_cache_bank[4]: Access = 2115, Miss = 1432, Miss_rate = 0.677, Pending_hits = 1, Reservation_fails = 0
L2_cache_bank[5]: Access = 2115, Miss = 1432, Miss_rate = 0.677, Pending_hits = 112, Reservation_fails = 0
L2_cache_bank[6]: Access = 2113, Miss = 1432, Miss_rate = 0.678, Pending_hits = 0, Reservation_fails = 0
L2_cache_bank[7]: Access = 2112, Miss = 1432, Miss_rate = 0.678, Pending_hits = 105, Reservation_fails = 1
L2_cache_bank[8]: Access = 2142, Miss = 1434, Miss_rate = 0.669, Pending_hits = 27, Reservation_fails = 0
L2_cache_bank[9]: Access = 2143, Miss = 1434, Miss_rate = 0.669, Pending_hits = 136, Reservation_fails = 0
L2_cache_bank[10]: Access = 2142, Miss = 1433, Miss_rate = 0.669, Pending_hits = 27, Reservation_fails = 0
L2_cache_bank[11]: Access = 2141, Miss = 1433, Miss_rate = 0.669, Pending_hits = 133, Reservation_fails = 1
L2_cache_bank[12]: Access = 2140, Miss = 1433, Miss_rate = 0.670, Pending_hits = 27, Reservation_fails = 0
L2_cache_bank[13]: Access = 2141, Miss = 1433, Miss_rate = 0.669, Pending_hits = 135, Reservation_fails = 0
L2_cache_bank[14]: Access = 2144, Miss = 1434, Miss_rate = 0.669, Pending_hits = 28, Reservation_fails = 0
L2_cache_bank[15]: Access = 2144, Miss = 1434, Miss_rate = 0.669, Pending_hits = 132, Reservation_fails = 0
L2_cache_bank[16]: Access = 2142, Miss = 1433, Miss_rate = 0.669, Pending_hits = 29, Reservation_fails = 0
L2_cache_bank[17]: Access = 2141, Miss = 1433, Miss_rate = 0.669, Pending_hits = 132, Reservation_fails = 0
L2_cache_bank[18]: Access = 2140, Miss = 1432, Miss_rate = 0.669, Pending_hits = 2, Reservation_fails = 0
L2_cache_bank[19]: Access = 2141, Miss = 1432, Miss_rate = 0.669, Pending_hits = 107, Reservation_fails = 0
L2_cache_bank[20]: Access = 2144, Miss = 1433, Miss_rate = 0.668, Pending_hits = 3, Reservation_fails = 0
L2_cache_bank[21]: Access = 2144, Miss = 1433, Miss_rate = 0.668, Pending_hits = 111, Reservation_fails = 0
L2_total_cache_accesses = 47008
L2_total_cache_misses = 31522
L2_total_cache_miss_rate = 0.6706
L2_total_cache_pending_hits = 1502
L2_total_cache_reservation_fails = 2
L2_total_cache_breakdown:
	L2_cache_stats_breakdown[GLOBAL_ACC_R][HIT] = 13807
	L2_cache_stats_breakdown[GLOBAL_ACC_R][HIT_RESERVED] = 1193
	L2_cache_stats_breakdown[GLOBAL_ACC_R][MISS] = 16384
	L2_cache_stats_breakdown[GLOBAL_ACC_R][RESERVATION_FAIL] = 0
	L2_cache_stats_breakdown[LOCAL_ACC_R][HIT] = 0
	L2_cache_stats_breakdown[LOCAL_ACC_R][HIT_RESERVED] = 0
	L2_cache_stats_breakdown[LOCAL_ACC_R][MISS] = 0
	L2_cache_stats_breakdown[LOCAL_ACC_R][RESERVATION_FAIL] = 0
	L2_cache_stats_breakdown[CONST_ACC_R][HIT] = 0
	L2_cache_stats_breakdown[CONST_ACC_R][HIT_RESERVED] = 27
	L2_cache_stats_breakdown[CONST_ACC_R][MISS] = 1
	L2_cache_stats_breakdown[CONST_ACC_R][RESERVATION_FAIL] = 0
	L2_cache_stats_breakdown[TEXTURE_ACC_R][HIT] = 0
	L2_cache_stats_breakdown[TEXTURE_ACC_R][HIT_RESERVED] = 0
	L2_cache_stats_breakdown[TEXTURE_ACC_R][MISS] = 0
	L2_cache_stats_breakdown[TEXTURE_ACC_R][RESERVATION_FAIL] = 0
	L2_cache_stats_breakdown[GLOBAL_ACC_W][HIT] = 0
	L2_cache_stats_breakdown[GLOBAL_ACC_W][HIT_RESERVED] = 0
	L2_cache_stats_breakdown[GLOBAL_ACC_W][MISS] = 15120
	L2_cache_stats_breakdown[GLOBAL_ACC_W][RESERVATION_FAIL] = 2
	L2_cache_stats_breakdown[LOCAL_ACC_W][HIT] = 0
	L2_cache_stats_breakdown[LOCAL_ACC_W][HIT_RESERVED] = 0
	L2_cache_stats_breakdown[LOCAL_ACC_W][MISS] = 0
	L2_cache_stats_breakdown[LOCAL_ACC_W][RESERVATION_FAIL] = 0
	L2_cache_stats_breakdown[L1_WRBK_ACC][HIT] = 0
	L2_cache_stats_breakdown[L1_WRBK_ACC][HIT_RESERVED] = 0
	L2_cache_stats_breakdown[L1_WRBK_ACC][MISS] = 0
	L2_cache_stats_breakdown[L1_WRBK_ACC][RESERVATION_FAIL] = 0
	L2_cache_stats_breakdown[L2_WRBK_ACC][HIT] = 0
	L2_cache_stats_breakdown[L2_WRBK_ACC][HIT_RESERVED] = 0
	L2_cache_stats_breakdown[L2_WRBK_ACC][MISS] = 0
	L2_cache_stats_breakdown[L2_WRBK_ACC][RESERVATION_FAIL] = 0
	L2_cache_stats_breakdown[INST_ACC_R][HIT] = 177
	L2_cache_stats_breakdown[INST_ACC_R][HIT_RESERVED] = 282
	L2_cache_stats_breakdown[INST_ACC_R][MISS] = 17
	L2_cache_stats_breakdown[INST_ACC_R][RESERVATION_FAIL] = 0
	L2_cache_stats_breakdown[L1_WR_ALLOC_R][HIT] = 0
	L2_cache_stats_breakdown[L1_WR_ALLOC_R][HIT_RESERVED] = 0
	L2_cache_stats_breakdown[L1_WR_ALLOC_R][MISS] = 0
	L2_cache_stats_breakdown[L1_WR_ALLOC_R][RESERVATION_FAIL] = 0
	L2_cache_stats_breakdown[L2_WR_ALLOC_R][HIT] = 0
	L2_cache_stats_breakdown[L2_WR_ALLOC_R][HIT_RESERVED] = 0
	L2_cache_stats_breakdown[L2_WR_ALLOC_R][MISS] = 0
	L2_cache_stats_breakdown[L2_WR_ALLOC_R][RESERVATION_FAIL] = 0
	L2_cache_stats_breakdown[GLOBAL_ACC_R][TOTAL_ACCESS] = 31384
	L2_cache_stats_breakdown[CONST_ACC_R][TOTAL_ACCESS] = 28
	L2_cache_stats_breakdown[GLOBAL_ACC_W][TOTAL_ACCESS] = 15120
	L2_cache_stats_breakdown[INST_ACC_R][TOTAL_ACCESS] = 476
L2_cache_data_port_util = 0.012
L2_cache_fill_port_util = 0.040

icnt_total_pkts_mem_to_simt=151824
icnt_total_pkts_simt_to_mem=107488
LD_mem_lat_dist  0 0 0 0 0 0 0 0 0 0 0 0 0 0 0 0 0 0 0 0 0 0 0 0 0 0 0
ST_mem_lat_dist  0 0 0 0 0 0 0 0 0 0 0 0 0 0 0 0 0 0 0 0 0 0 0 0 0 0 0
----------------------------Interconnect-DETAILS--------------------------------
Class 0:
Packet latency average = 21.0945
	minimum = 6
	maximum = 1442
Network latency average = 17.2057
	minimum = 6
	maximum = 1437
Slowest packet = 42192
Flit latency average = 19.5842
	minimum = 6
	maximum = 1433
Slowest flit = 119362
Fragmentation average = 0.93365
	minimum = 0
	maximum = 1253
Injected packet rate average = 0.00663519
	minimum = 0.00525785 (at node 0)
	maximum = 0.00785501 (at node 3)
Accepted packet rate average = 0.00663519
	minimum = 0.00525785 (at node 0)
	maximum = 0.00785501 (at node 3)
Injected flit rate average = 0.018301
	minimum = 0.0120331 (at node 0)
	maximum = 0.024733 (at node 28)
Accepted flit rate average= 0.018301
	minimum = 0.0169663 (at node 0)
	maximum = 0.0252941 (at node 3)
Injected packet length average = 2.75817
Accepted packet length average = 2.75817
Total in-flight flits = 0 (0 measured)
====== Overall Traffic Statistics ======
====== Traffic class 0 ======
Packet latency average = 21.0945 (1 samples)
	minimum = 6 (1 samples)
	maximum = 1442 (1 samples)
Network latency average = 17.2057 (1 samples)
	minimum = 6 (1 samples)
	maximum = 1437 (1 samples)
Flit latency average = 19.5842 (1 samples)
	minimum = 6 (1 samples)
	maximum = 1433 (1 samples)
Fragmentation average = 0.93365 (1 samples)
	minimum = 0 (1 samples)
	maximum = 1253 (1 samples)
Injected packet rate average = 0.00663519 (1 samples)
	minimum = 0.00525785 (1 samples)
	maximum = 0.00785501 (1 samples)
Accepted packet rate average = 0.00663519 (1 samples)
	minimum = 0.00525785 (1 samples)
	maximum = 0.00785501 (1 samples)
Injected flit rate average = 0.018301 (1 samples)
	minimum = 0.0120331 (1 samples)
	maximum = 0.024733 (1 samples)
Accepted flit rate average = 0.018301 (1 samples)
	minimum = 0.0169663 (1 samples)
	maximum = 0.0252941 (1 samples)
Injected packet size average = 2.75817 (1 samples)
Accepted packet size average = 2.75817 (1 samples)
Hops average = 1 (1 samples)
----------------------------END-of-Interconnect-DETAILS-------------------------


gpgpu_simulation_time = 0 days, 0 hrs, 5 min, 36 sec (336 sec)
gpgpu_simulation_rate = 85859 (inst/sec)
gpgpu_simulation_rate = 1082 (cycle/sec)

GPGPU-Sim PTX: cudaLaunch for 0x0x401496 (mode=performance simulation) on stream 0
GPGPU-Sim PTX: pushing kernel '_Z24block2D_hybrid_coarsen_xffPfS_iii' to stream 0, gridDim= (2,32,1) blockDim = (32,4,1) 
GPGPU-Sim uArch: Shader 9 bind to kernel 2 '_Z24block2D_hybrid_coarsen_xffPfS_iii'
GPGPU-Sim uArch: Shader 10 bind to kernel 2 '_Z24block2D_hybrid_coarsen_xffPfS_iii'
GPGPU-Sim uArch: Shader 11 bind to kernel 2 '_Z24block2D_hybrid_coarsen_xffPfS_iii'
GPGPU-Sim uArch: Shader 12 bind to kernel 2 '_Z24block2D_hybrid_coarsen_xffPfS_iii'
GPGPU-Sim uArch: Shader 13 bind to kernel 2 '_Z24block2D_hybrid_coarsen_xffPfS_iii'
GPGPU-Sim uArch: Shader 14 bind to kernel 2 '_Z24block2D_hybrid_coarsen_xffPfS_iii'
GPGPU-Sim uArch: Shader 15 bind to kernel 2 '_Z24block2D_hybrid_coarsen_xffPfS_iii'
GPGPU-Sim uArch: Shader 16 bind to kernel 2 '_Z24block2D_hybrid_coarsen_xffPfS_iii'
GPGPU-Sim uArch: Shader 17 bind to kernel 2 '_Z24block2D_hybrid_coarsen_xffPfS_iii'
GPGPU-Sim uArch: Shader 18 bind to kernel 2 '_Z24block2D_hybrid_coarsen_xffPfS_iii'
GPGPU-Sim uArch: Shader 19 bind to kernel 2 '_Z24block2D_hybrid_coarsen_xffPfS_iii'
GPGPU-Sim uArch: Shader 20 bind to kernel 2 '_Z24block2D_hybrid_coarsen_xffPfS_iii'
GPGPU-Sim uArch: Shader 21 bind to kernel 2 '_Z24block2D_hybrid_coarsen_xffPfS_iii'
GPGPU-Sim uArch: Shader 22 bind to kernel 2 '_Z24block2D_hybrid_coarsen_xffPfS_iii'
GPGPU-Sim uArch: Shader 23 bind to kernel 2 '_Z24block2D_hybrid_coarsen_xffPfS_iii'
GPGPU-Sim uArch: Shader 24 bind to kernel 2 '_Z24block2D_hybrid_coarsen_xffPfS_iii'
GPGPU-Sim uArch: Shader 25 bind to kernel 2 '_Z24block2D_hybrid_coarsen_xffPfS_iii'
GPGPU-Sim uArch: Shader 26 bind to kernel 2 '_Z24block2D_hybrid_coarsen_xffPfS_iii'
GPGPU-Sim uArch: Shader 27 bind to kernel 2 '_Z24block2D_hybrid_coarsen_xffPfS_iii'
GPGPU-Sim uArch: Shader 0 bind to kernel 2 '_Z24block2D_hybrid_coarsen_xffPfS_iii'
GPGPU-Sim uArch: Shader 1 bind to kernel 2 '_Z24block2D_hybrid_coarsen_xffPfS_iii'
GPGPU-Sim uArch: Shader 2 bind to kernel 2 '_Z24block2D_hybrid_coarsen_xffPfS_iii'
GPGPU-Sim uArch: Shader 3 bind to kernel 2 '_Z24block2D_hybrid_coarsen_xffPfS_iii'
GPGPU-Sim uArch: Shader 4 bind to kernel 2 '_Z24block2D_hybrid_coarsen_xffPfS_iii'
GPGPU-Sim uArch: Shader 5 bind to kernel 2 '_Z24block2D_hybrid_coarsen_xffPfS_iii'
GPGPU-Sim uArch: Shader 6 bind to kernel 2 '_Z24block2D_hybrid_coarsen_xffPfS_iii'
GPGPU-Sim uArch: Shader 7 bind to kernel 2 '_Z24block2D_hybrid_coarsen_xffPfS_iii'
GPGPU-Sim uArch: Shader 8 bind to kernel 2 '_Z24block2D_hybrid_coarsen_xffPfS_iii'
Destroy streams for kernel 2: size 0
kernel_name = _Z24block2D_hybrid_coarsen_xffPfS_iii 
kernel_launch_uid = 2 
gpu_sim_cycle = 41736
gpu_sim_insn = 28848876
gpu_ipc =     691.2228
gpu_tot_sim_cycle = 627730
gpu_tot_sim_insn = 57697752
gpu_tot_ipc =      91.9149
gpu_tot_issued_cta = 128
max_total_param_size = 0
gpu_stall_dramfull = 83902
gpu_stall_icnt2sh    = 2678
partiton_reqs_in_parallel = 918192
partiton_reqs_in_parallel_total    = 3033366
partiton_level_parallism =      22.0000
partiton_level_parallism_total  =       6.2950
partiton_reqs_in_parallel_util = 918192
partiton_reqs_in_parallel_util_total    = 3033366
gpu_sim_cycle_parition_util = 41736
gpu_tot_sim_cycle_parition_util    = 140724
partiton_level_parallism_util =      22.0000
partiton_level_parallism_util_total  =      21.6571
partiton_replys_in_parallel = 46504
partiton_replys_in_parallel_total    = 47008
L2_BW  =     105.6123 GB/Sec
L2_BW_total  =      14.1198 GB/Sec
gpu_total_sim_rate=117033

========= Core cache stats =========
L1I_cache:
	L1I_total_cache_accesses = 1158456
	L1I_total_cache_misses = 3324
	L1I_total_cache_miss_rate = 0.0029
	L1I_total_cache_pending_hits = 0
	L1I_total_cache_reservation_fails = 0
L1D_cache:
	L1D_cache_core[0]: Access = 0, Miss = 0, Miss_rate = -nan, Pending_hits = 0, Reservation_fails = 0
	L1D_cache_core[1]: Access = 0, Miss = 0, Miss_rate = -nan, Pending_hits = 0, Reservation_fails = 0
	L1D_cache_core[2]: Access = 0, Miss = 0, Miss_rate = -nan, Pending_hits = 0, Reservation_fails = 0
	L1D_cache_core[3]: Access = 0, Miss = 0, Miss_rate = -nan, Pending_hits = 0, Reservation_fails = 0
	L1D_cache_core[4]: Access = 0, Miss = 0, Miss_rate = -nan, Pending_hits = 0, Reservation_fails = 0
	L1D_cache_core[5]: Access = 0, Miss = 0, Miss_rate = -nan, Pending_hits = 0, Reservation_fails = 0
	L1D_cache_core[6]: Access = 0, Miss = 0, Miss_rate = -nan, Pending_hits = 0, Reservation_fails = 0
	L1D_cache_core[7]: Access = 0, Miss = 0, Miss_rate = -nan, Pending_hits = 0, Reservation_fails = 0
	L1D_cache_core[8]: Access = 0, Miss = 0, Miss_rate = -nan, Pending_hits = 0, Reservation_fails = 0
	L1D_cache_core[9]: Access = 0, Miss = 0, Miss_rate = -nan, Pending_hits = 0, Reservation_fails = 0
	L1D_cache_core[10]: Access = 0, Miss = 0, Miss_rate = -nan, Pending_hits = 0, Reservation_fails = 0
	L1D_cache_core[11]: Access = 0, Miss = 0, Miss_rate = -nan, Pending_hits = 0, Reservation_fails = 0
	L1D_cache_core[12]: Access = 0, Miss = 0, Miss_rate = -nan, Pending_hits = 0, Reservation_fails = 0
	L1D_cache_core[13]: Access = 0, Miss = 0, Miss_rate = -nan, Pending_hits = 0, Reservation_fails = 0
	L1D_cache_core[14]: Access = 0, Miss = 0, Miss_rate = -nan, Pending_hits = 0, Reservation_fails = 0
	L1D_cache_core[15]: Access = 0, Miss = 0, Miss_rate = -nan, Pending_hits = 0, Reservation_fails = 0
	L1D_cache_core[16]: Access = 0, Miss = 0, Miss_rate = -nan, Pending_hits = 0, Reservation_fails = 0
	L1D_cache_core[17]: Access = 0, Miss = 0, Miss_rate = -nan, Pending_hits = 0, Reservation_fails = 0
	L1D_cache_core[18]: Access = 0, Miss = 0, Miss_rate = -nan, Pending_hits = 0, Reservation_fails = 0
	L1D_cache_core[19]: Access = 0, Miss = 0, Miss_rate = -nan, Pending_hits = 0, Reservation_fails = 0
	L1D_cache_core[20]: Access = 0, Miss = 0, Miss_rate = -nan, Pending_hits = 0, Reservation_fails = 0
	L1D_cache_core[21]: Access = 0, Miss = 0, Miss_rate = -nan, Pending_hits = 0, Reservation_fails = 0
	L1D_cache_core[22]: Access = 0, Miss = 0, Miss_rate = -nan, Pending_hits = 0, Reservation_fails = 0
	L1D_cache_core[23]: Access = 0, Miss = 0, Miss_rate = -nan, Pending_hits = 0, Reservation_fails = 0
	L1D_cache_core[24]: Access = 0, Miss = 0, Miss_rate = -nan, Pending_hits = 0, Reservation_fails = 0
	L1D_cache_core[25]: Access = 0, Miss = 0, Miss_rate = -nan, Pending_hits = 0, Reservation_fails = 0
	L1D_cache_core[26]: Access = 0, Miss = 0, Miss_rate = -nan, Pending_hits = 0, Reservation_fails = 0
	L1D_cache_core[27]: Access = 0, Miss = 0, Miss_rate = -nan, Pending_hits = 0, Reservation_fails = 0
	L1D_total_cache_accesses = 0
	L1D_total_cache_misses = 0
	L1D_total_cache_pending_hits = 0
	L1D_total_cache_reservation_fails = 0
	L1D_cache_data_port_util = 0.000
	L1D_cache_fill_port_util = 0.000
L1C_cache:
	L1C_total_cache_accesses = 3584
	L1C_total_cache_misses = 1632
	L1C_total_cache_miss_rate = 0.4554
	L1C_total_cache_pending_hits = 0
	L1C_total_cache_reservation_fails = 1444
L1T_cache:
	L1T_total_cache_accesses = 0
	L1T_total_cache_misses = 0
	L1T_total_cache_pending_hits = 0
	L1T_total_cache_reservation_fails = 0

Total_core_cache_stats:
	Total_core_cache_stats_breakdown[GLOBAL_ACC_R][HIT] = 0
	Total_core_cache_stats_breakdown[GLOBAL_ACC_R][HIT_RESERVED] = 0
[...]
----------------------------Interconnect-DETAILS--------------------------------
Class 0:
Packet latency average = 8.50257
	minimum = 6
	maximum = 49
Network latency average = 8.37975
	minimum = 6
	maximum = 40
Slowest packet = 3629081
Flit latency average = 6.83095
	minimum = 6
	maximum = 36
Slowest flit = 10002141
Fragmentation average = 0
	minimum = 0
	maximum = 0
Injected packet rate average = 0.0237241
	minimum = 0.0187736 (at node 0)
	maximum = 0.0281604 (at node 7)
Accepted packet rate average = 0.0237241
	minimum = 0.0187736 (at node 0)
	maximum = 0.0281604 (at node 7)
Injected flit rate average = 0.0653872
	minimum = 0.0432609 (at node 0)
	maximum = 0.0866748 (at node 42)
Accepted flit rate average= 0.0653872
	minimum = 0.0601979 (at node 0)
	maximum = 0.0902969 (at node 7)
Injected packet length average = 2.75615
Accepted packet length average = 2.75615
Total in-flight flits = 0 (0 measured)
====== Overall Traffic Statistics ======
====== Traffic class 0 ======
Packet latency average = 8.87848 (40 samples)
	minimum = 6 (40 samples)
	maximum = 82.6 (40 samples)
Network latency average = 8.65114 (40 samples)
	minimum = 6 (40 samples)
	maximum = 79.15 (40 samples)
Flit latency average = 7.21227 (40 samples)
	minimum = 6 (40 samples)
	maximum = 75.275 (40 samples)
Fragmentation average = 0.0233412 (40 samples)
	minimum = 0 (40 samples)
	maximum = 31.325 (40 samples)
Injected packet rate average = 0.0231606 (40 samples)
	minimum = 0.0183279 (40 samples)
	maximum = 0.027491 (40 samples)
Accepted packet rate average = 0.0231606 (40 samples)
	minimum = 0.0183279 (40 samples)
	maximum = 0.027491 (40 samples)
Injected flit rate average = 0.0638344 (40 samples)
	minimum = 0.0422317 (40 samples)
	maximum = 0.0846284 (40 samples)
Accepted flit rate average = 0.0638344 (40 samples)
	minimum = 0.0587713 (40 samples)
	maximum = 0.0881531 (40 samples)
Injected packet size average = 2.75616 (40 samples)
Accepted packet size average = 2.75616 (40 samples)
Hops average = 1 (40 samples)
----------------------------END-of-Interconnect-DETAILS-------------------------


gpgpu_simulation_time = 0 days, 1 hrs, 34 min, 52 sec (5692 sec)
gpgpu_simulation_rate = 202732 (inst/sec)
gpgpu_simulation_rate = 1856 (cycle/sec)
========================================UVM statistics==============================
========================================TLB statistics(access)==============================
Shader0: Tlb_access: 66226 Tlb_hit: 62723 Tlb_miss: 3503 Tlb_hit_rate: 0.947105
Shader1: Tlb_access: 66812 Tlb_hit: 63075 Tlb_miss: 3737 Tlb_hit_rate: 0.944067
Shader2: Tlb_access: 66812 Tlb_hit: 63018 Tlb_miss: 3794 Tlb_hit_rate: 0.943214
Shader3: Tlb_access: 66812 Tlb_hit: 63188 Tlb_miss: 3624 Tlb_hit_rate: 0.945758
Shader4: Tlb_access: 66812 Tlb_hit: 63184 Tlb_miss: 3628 Tlb_hit_rate: 0.945698
Shader5: Tlb_access: 66812 Tlb_hit: 63153 Tlb_miss: 3659 Tlb_hit_rate: 0.945234
Shader6: Tlb_access: 66812 Tlb_hit: 63099 Tlb_miss: 3713 Tlb_hit_rate: 0.944426
Shader7: Tlb_access: 66812 Tlb_hit: 63176 Tlb_miss: 3636 Tlb_hit_rate: 0.945579
Shader8: Tlb_access: 66812 Tlb_hit: 63201 Tlb_miss: 3611 Tlb_hit_rate: 0.945953
Shader9: Tlb_access: 66812 Tlb_hit: 63148 Tlb_miss: 3664 Tlb_hit_rate: 0.945160
Shader10: Tlb_access: 66812 Tlb_hit: 63087 Tlb_miss: 3725 Tlb_hit_rate: 0.944247
Shader11: Tlb_access: 66812 Tlb_hit: 63296 Tlb_miss: 3516 Tlb_hit_rate: 0.947375
Shader12: Tlb_access: 66812 Tlb_hit: 63305 Tlb_miss: 3507 Tlb_hit_rate: 0.947509
Shader13: Tlb_access: 66226 Tlb_hit: 62665 Tlb_miss: 3561 Tlb_hit_rate: 0.946230
Shader14: Tlb_access: 66226 Tlb_hit: 62639 Tlb_miss: 3587 Tlb_hit_rate: 0.945837
Shader15: Tlb_access: 66076 Tlb_hit: 62512 Tlb_miss: 3564 Tlb_hit_rate: 0.946062
Shader16: Tlb_access: 66076 Tlb_hit: 62536 Tlb_miss: 3540 Tlb_hit_rate: 0.946425
Shader17: Tlb_access: 66076 Tlb_hit: 62403 Tlb_miss: 3673 Tlb_hit_rate: 0.944412
Shader18: Tlb_access: 66076 Tlb_hit: 62349 Tlb_miss: 3727 Tlb_hit_rate: 0.943595
Shader19: Tlb_access: 66226 Tlb_hit: 62704 Tlb_miss: 3522 Tlb_hit_rate: 0.946818
Shader20: Tlb_access: 66226 Tlb_hit: 62705 Tlb_miss: 3521 Tlb_hit_rate: 0.946834
Shader21: Tlb_access: 66226 Tlb_hit: 62671 Tlb_miss: 3555 Tlb_hit_rate: 0.946320
Shader22: Tlb_access: 66226 Tlb_hit: 62602 Tlb_miss: 3624 Tlb_hit_rate: 0.945278
Shader23: Tlb_access: 66076 Tlb_hit: 62525 Tlb_miss: 3551 Tlb_hit_rate: 0.946259
Shader24: Tlb_access: 66076 Tlb_hit: 62559 Tlb_miss: 3517 Tlb_hit_rate: 0.946773
Shader25: Tlb_access: 66076 Tlb_hit: 62410 Tlb_miss: 3666 Tlb_hit_rate: 0.944518
Shader26: Tlb_access: 66076 Tlb_hit: 62367 Tlb_miss: 3709 Tlb_hit_rate: 0.943868
Shader27: Tlb_access: 66226 Tlb_hit: 62704 Tlb_miss: 3522 Tlb_hit_rate: 0.946818
Tlb_tot_access: 1860160 Tlb_tot_hit: 1759004, Tlb_tot_miss: 101156, Tlb_tot_hit_rate: 0.945620
========================================TLB statistics(validate)==============================
Shader0: Tlb_validate: 1024 Tlb_invalidate: 960 Tlb_evict: 0 Tlb_page_evict: 960
Shader1: Tlb_validate: 1024 Tlb_invalidate: 960 Tlb_evict: 0 Tlb_page_evict: 960
Shader2: Tlb_validate: 1024 Tlb_invalidate: 960 Tlb_evict: 0 Tlb_page_evict: 960
Shader3: Tlb_validate: 1024 Tlb_invalidate: 960 Tlb_evict: 0 Tlb_page_evict: 960
Shader4: Tlb_validate: 1024 Tlb_invalidate: 960 Tlb_evict: 0 Tlb_page_evict: 960
Shader5: Tlb_validate: 1024 Tlb_invalidate: 960 Tlb_evict: 0 Tlb_page_evict: 960
Shader6: Tlb_validate: 1024 Tlb_invalidate: 960 Tlb_evict: 0 Tlb_page_evict: 960
Shader7: Tlb_validate: 1024 Tlb_invalidate: 960 Tlb_evict: 0 Tlb_page_evict: 960
Shader8: Tlb_validate: 1024 Tlb_invalidate: 960 Tlb_evict: 0 Tlb_page_evict: 960
Shader9: Tlb_validate: 1024 Tlb_invalidate: 960 Tlb_evict: 0 Tlb_page_evict: 960
Shader10: Tlb_validate: 1024 Tlb_invalidate: 960 Tlb_evict: 0 Tlb_page_evict: 960
Shader11: Tlb_validate: 1024 Tlb_invalidate: 960 Tlb_evict: 0 Tlb_page_evict: 960
Shader12: Tlb_validate: 1024 Tlb_invalidate: 960 Tlb_evict: 0 Tlb_page_evict: 960
Shader13: Tlb_validate: 1024 Tlb_invalidate: 960 Tlb_evict: 0 Tlb_page_evict: 960
Shader14: Tlb_validate: 1024 Tlb_invalidate: 960 Tlb_evict: 0 Tlb_page_evict: 960
Shader15: Tlb_validate: 1024 Tlb_invalidate: 960 Tlb_evict: 0 Tlb_page_evict: 960
Shader16: Tlb_validate: 1024 Tlb_invalidate: 960 Tlb_evict: 0 Tlb_page_evict: 960
Shader17: Tlb_validate: 1024 Tlb_invalidate: 960 Tlb_evict: 0 Tlb_page_evict: 960
Shader18: Tlb_validate: 1024 Tlb_invalidate: 960 Tlb_evict: 0 Tlb_page_evict: 960
Shader19: Tlb_validate: 1024 Tlb_invalidate: 960 Tlb_evict: 0 Tlb_page_evict: 960
Shader20: Tlb_validate: 1024 Tlb_invalidate: 960 Tlb_evict: 0 Tlb_page_evict: 960
Shader21: Tlb_validate: 1024 Tlb_invalidate: 960 Tlb_evict: 0 Tlb_page_evict: 960
Shader22: Tlb_validate: 1024 Tlb_invalidate: 960 Tlb_evict: 0 Tlb_page_evict: 960
Shader23: Tlb_validate: 1024 Tlb_invalidate: 960 Tlb_evict: 0 Tlb_page_evict: 960
Shader24: Tlb_validate: 1024 Tlb_invalidate: 960 Tlb_evict: 0 Tlb_page_evict: 960
Shader25: Tlb_validate: 1024 Tlb_invalidate: 960 Tlb_evict: 0 Tlb_page_evict: 960
Shader26: Tlb_validate: 1024 Tlb_invalidate: 960 Tlb_evict: 0 Tlb_page_evict: 960
Shader27: Tlb_validate: 1024 Tlb_invalidate: 960 Tlb_evict: 0 Tlb_page_evict: 960
Tlb_tot_valiate: 28672 Tlb_invalidate: 26880, Tlb_tot_evict: 0, Tlb_tot_evict page: 26880
========================================TLB statistics(threshing)==============================
Shader0: Total 0
Shader1: Total 0
Shader2: Total 0
Shader3: Total 0
Shader4: Total 0
Shader5: Total 0
Shader6: Total 0
Shader7: Total 0
Shader8: Total 0
Shader9: Total 0
Shader10: Total 0
Shader11: Total 0
Shader12: Total 0
Shader13: Total 0
Shader14: Total 0
Shader15: Total 0
Shader16: Total 0
Shader17: Total 0
Shader18: Total 0
Shader19: Total 0
Shader20: Total 0
Shader21: Total 0
Shader22: Total 0
Shader23: Total 0
Shader24: Total 0
Shader25: Total 0
Shader26: Total 0
Shader27: Total 0
Tlb_tot_thresh: 0
========================================Page fault statistics==============================
Shader0: Page_table_access:3503 Page_hit: 3039 Page_miss: 464 Page_hit_rate: 0.867542 Page_fault: 1 Page_pending: 462
Shader1: Page_table_access:3737 Page_hit: 3072 Page_miss: 665 Page_hit_rate: 0.822050 Page_fault: 2 Page_pending: 663
Shader2: Page_table_access:3794 Page_hit: 3126 Page_miss: 668 Page_hit_rate: 0.823933 Page_fault: 4 Page_pending: 662
Shader3: Page_table_access:3624 Page_hit: 2912 Page_miss: 712 Page_hit_rate: 0.803532 Page_fault: 2 Page_pending: 711
Shader4: Page_table_access:3628 Page_hit: 2912 Page_miss: 716 Page_hit_rate: 0.802646 Page_fault: 0 Page_pending: 715
Shader5: Page_table_access:3659 Page_hit: 2963 Page_miss: 696 Page_hit_rate: 0.809784 Page_fault: 0 Page_pending: 696
Shader6: Page_table_access:3713 Page_hit: 3017 Page_miss: 696 Page_hit_rate: 0.812550 Page_fault: 0 Page_pending: 696
Shader7: Page_table_access:3636 Page_hit: 2988 Page_miss: 648 Page_hit_rate: 0.821782 Page_fault: 0 Page_pending: 648
Shader8: Page_table_access:3611 Page_hit: 2963 Page_miss: 648 Page_hit_rate: 0.820548 Page_fault: 0 Page_pending: 648
Shader9: Page_table_access:3664 Page_hit: 3200 Page_miss: 464 Page_hit_rate: 0.873362 Page_fault: 0 Page_pending: 464
Shader10: Page_table_access:3725 Page_hit: 3261 Page_miss: 464 Page_hit_rate: 0.875436 Page_fault: 0 Page_pending: 464
Shader11: Page_table_access:3516 Page_hit: 3052 Page_miss: 464 Page_hit_rate: 0.868032 Page_fault: 0 Page_pending: 464
Shader12: Page_table_access:3507 Page_hit: 3043 Page_miss: 464 Page_hit_rate: 0.867693 Page_fault: 0 Page_pending: 464
Shader13: Page_table_access:3561 Page_hit: 3097 Page_miss: 464 Page_hit_rate: 0.869700 Page_fault: 0 Page_pending: 464
Shader14: Page_table_access:3587 Page_hit: 3123 Page_miss: 464 Page_hit_rate: 0.870644 Page_fault: 0 Page_pending: 464
Shader15: Page_table_access:3564 Page_hit: 3100 Page_miss: 464 Page_hit_rate: 0.869809 Page_fault: 2 Page_pending: 464
Shader16: Page_table_access:3540 Page_hit: 3076 Page_miss: 464 Page_hit_rate: 0.868927 Page_fault: 1 Page_pending: 464
Shader17: Page_table_access:3673 Page_hit: 3209 Page_miss: 464 Page_hit_rate: 0.873673 Page_fault: 0 Page_pending: 464
Shader18: Page_table_access:3727 Page_hit: 3263 Page_miss: 464 Page_hit_rate: 0.875503 Page_fault: 0 Page_pending: 464
Shader19: Page_table_access:3522 Page_hit: 3058 Page_miss: 464 Page_hit_rate: 0.868257 Page_fault: 0 Page_pending: 464
Shader20: Page_table_access:3521 Page_hit: 3057 Page_miss: 464 Page_hit_rate: 0.868219 Page_fault: 0 Page_pending: 464
Shader21: Page_table_access:3555 Page_hit: 3091 Page_miss: 464 Page_hit_rate: 0.869480 Page_fault: 0 Page_pending: 464
Shader22: Page_table_access:3624 Page_hit: 3160 Page_miss: 464 Page_hit_rate: 0.871965 Page_fault: 0 Page_pending: 464
Shader23: Page_table_access:3551 Page_hit: 3087 Page_miss: 464 Page_hit_rate: 0.869333 Page_fault: 0 Page_pending: 464
Shader24: Page_table_access:3517 Page_hit: 3053 Page_miss: 464 Page_hit_rate: 0.868069 Page_fault: 0 Page_pending: 464
Shader25: Page_table_access:3666 Page_hit: 3202 Page_miss: 464 Page_hit_rate: 0.873432 Page_fault: 0 Page_pending: 464
Shader26: Page_table_access:3709 Page_hit: 3245 Page_miss: 464 Page_hit_rate: 0.874899 Page_fault: 0 Page_pending: 464
Shader27: Page_table_access:3522 Page_hit: 3058 Page_miss: 464 Page_hit_rate: 0.868257 Page_fault: 0 Page_pending: 464
Page_talbe_tot_access: 101156 Page_tot_hit: 86427, Page_tot_miss 14729, Page_tot_hit_rate: 0.854393 Page_tot_fault: 12 Page_tot_pending: 14717
Total_memory_access_page_fault: 12, Average_latency 254516.937500
========================================Page threshing statistics==============================
Page_validate: 1024 Page_evict_diry: 0 Page_evict_not_diry: 0
Page_tot_thresh: 0
========================================Memory access statistics==============================
========================================Prefetch statistics==============================
Tot_page_hit: 0, Tot_page_miss: 0, Tot_page_fault: 0
Avg_page_latency: 0.000000, Avg_prefetch_size: -nan, Avg_prefetch_latency: 0.000000
========================================PCI-e statistics==============================
Pcie_read_utilization: 0.693916
[0-25]: 0.050013, [26-50]: 0.000000, [51-75]: 0.949987, [76-100]: 0.000000
Pcie_write_utilization: 0.000000
[0-25]: -nan, [26-50]: -nan, [51-75]: -nan, [76-100]: -nan
F:   222150----T:   363844 	 	 	 Kl: 1 	 Sm: 0 	 T: kernel_launch(95.674545)
F:   223546----T:   224706 	 St: c0000000 Sz: 28672 	 Sm: 0 	 T: memcpy_h2d(0.783255)
F:   224706----T:   226084 	 St: c0007000 Sz: 36864 	 Sm: 0 	 T: memcpy_h2d(0.930452)
F:   226084----T:   227244 	 St: c0010000 Sz: 28672 	 Sm: 0 	 T: memcpy_h2d(0.783255)
F:   227244----T:   228622 	 St: c0017000 Sz: 36864 	 Sm: 0 	 T: memcpy_h2d(0.930452)
F:   228835----T:   229486 	 St: c0020000 Sz: 4096 	 Sm: 0 	 T: memcpy_h2d(0.439568)
F:   229486----T:   233409 	 St: c0021000 Sz: 126976 	 Sm: 0 	 T: memcpy_h2d(2.648886)
F:   233409----T:   234060 	 St: c0210000 Sz: 4096 	 Sm: 0 	 T: memcpy_h2d(0.439568)
F:   234060----T:   236120 	 St: c0211000 Sz: 61440 	 Sm: 0 	 T: memcpy_h2d(1.390952)
F:   236120----T:   236771 	 St: c0220000 Sz: 4096 	 Sm: 0 	 T: memcpy_h2d(0.439568)
F:   236771----T:   238831 	 St: c0221000 Sz: 61440 	 Sm: 0 	 T: memcpy_h2d(1.390952)
F:   238831----T:   239482 	 St: c0040000 Sz: 4096 	 Sm: 0 	 T: memcpy_h2d(0.439568)
F:   239482----T:   247162 	 St: c0041000 Sz: 258048 	 Sm: 0 	 T: memcpy_h2d(5.185685)
F:   247162----T:   247813 	 St: c0230000 Sz: 4096 	 Sm: 0 	 T: memcpy_h2d(0.439568)
F:   247813----T:   251736 	 St: c0231000 Sz: 126976 	 Sm: 0 	 T: memcpy_h2d(2.648886)
F:   251736----T:   252387 	 St: c0250000 Sz: 4096 	 Sm: 0 	 T: memcpy_h2d(0.439568)
F:   252387----T:   260067 	 St: c0251000 Sz: 258048 	 Sm: 0 	 T: memcpy_h2d(5.185685)
F:   260067----T:   260718 	 St: c0080000 Sz: 4096 	 Sm: 0 	 T: memcpy_h2d(0.439568)
F:   260718----T:   275927 	 St: c0081000 Sz: 520192 	 Sm: 0 	 T: memcpy_h2d(10.269413)
F:   277669----T:   278320 	 St: c0290000 Sz: 4096 	 Sm: 0 	 T: memcpy_h2d(0.439568)
F:   278320----T:   293529 	 St: c0291000 Sz: 520192 	 Sm: 0 	 T: memcpy_h2d(10.269413)
F:   293529----T:   294180 	 St: c0100000 Sz: 4096 	 Sm: 0 	 T: memcpy_h2d(0.439568)
F:   294180----T:   324452 	 St: c0101000 Sz: 1044480 	 Sm: 0 	 T: memcpy_h2d(20.440243)
F:   326210----T:   328385 	 St: c0200000 Sz: 65536 	 Sm: 0 	 T: memcpy_h2d(1.468602)
F:   328385----T:   329036 	 St: c0310000 Sz: 4096 	 Sm: 0 	 T: memcpy_h2d(0.439568)
F:   329036----T:   357425 	 St: c0311000 Sz: 978944 	 Sm: 0 	 T: memcpy_h2d(19.168804)
F:   585994----T:   627730 	 	 	 Kl: 2 	 Sm: 0 	 T: kernel_launch(28.180960)
F:   849880----T:   891286 	 	 	 Kl: 3 	 Sm: 0 	 T: kernel_launch(27.958136)
F:  1113436----T:  1155196 	 	 	 Kl: 4 	 Sm: 0 	 T: kernel_launch(28.197165)
F:  1377346----T:  1418724 	 	 	 Kl: 5 	 Sm: 0 	 T: kernel_launch(27.939230)
F:  1640874----T:  1682471 	 	 	 Kl: 6 	 Sm: 0 	 T: kernel_launch(28.087103)
F:  1904621----T:  1946025 	 	 	 Kl: 7 	 Sm: 0 	 T: kernel_launch(27.956785)
F:  2168175----T:  2207676 	 	 	 Kl: 8 	 Sm: 0 	 T: kernel_launch(26.671843)
F:  2429826----T:  2468724 	 	 	 Kl: 9 	 Sm: 0 	 T: kernel_launch(26.264687)
F:  2690874----T:  2730216 	 	 	 Kl: 10 	 Sm: 0 	 T: kernel_launch(26.564484)
F:  2952366----T:  2991304 	 	 	 Kl: 11 	 Sm: 0 	 T: kernel_launch(26.291695)
F:  3213454----T:  3252864 	 	 	 Kl: 12 	 Sm: 0 	 T: kernel_launch(26.610399)
F:  3475014----T:  3514049 	 	 	 Kl: 13 	 Sm: 0 	 T: kernel_launch(26.357191)
F:  3736199----T:  3775730 	 	 	 Kl: 14 	 Sm: 0 	 T: kernel_launch(26.692101)
F:  3997880----T:  4037007 	 	 	 Kl: 15 	 Sm: 0 	 T: kernel_launch(26.419312)
F:  4259157----T:  4298555 	 	 	 Kl: 16 	 Sm: 0 	 T: kernel_launch(26.602295)
F:  4520705----T:  4559557 	 	 	 Kl: 17 	 Sm: 0 	 T: kernel_launch(26.233625)
F:  4781707----T:  4820777 	 	 	 Kl: 18 	 Sm: 0 	 T: kernel_launch(26.380823)
F:  5042927----T:  5081675 	 	 	 Kl: 19 	 Sm: 0 	 T: kernel_launch(26.163403)
F:  5303825----T:  5343240 	 	 	 Kl: 20 	 Sm: 0 	 T: kernel_launch(26.613775)
F:  5565390----T:  5604276 	 	 	 Kl: 21 	 Sm: 0 	 T: kernel_launch(26.256584)
F:  5826426----T:  5865578 	 	 	 Kl: 22 	 Sm: 0 	 T: kernel_launch(26.436192)
F:  6087728----T:  6126487 	 	 	 Kl: 23 	 Sm: 0 	 T: kernel_launch(26.170830)
F:  6348637----T:  6387817 	 	 	 Kl: 24 	 Sm: 0 	 T: kernel_launch(26.455097)
F:  6609967----T:  6648780 	 	 	 Kl: 25 	 Sm: 0 	 T: kernel_launch(26.207293)
F:  6870930----T:  6910271 	 	 	 Kl: 26 	 Sm: 0 	 T: kernel_launch(26.563808)
F:  7132421----T:  7171274 	 	 	 Kl: 27 	 Sm: 0 	 T: kernel_launch(26.234301)
F:  7393424----T:  7432507 	 	 	 Kl: 28 	 Sm: 0 	 T: kernel_launch(26.389601)
F:  7654657----T:  7693489 	 	 	 Kl: 29 	 Sm: 0 	 T: kernel_launch(26.220121)
F:  7915639----T:  7954753 	 	 	 Kl: 30 	 Sm: 0 	 T: kernel_launch(26.410534)
F:  8176903----T:  8215812 	 	 	 Kl: 31 	 Sm: 0 	 T: kernel_launch(26.272114)
F:  8437962----T:  8477283 	 	 	 Kl: 32 	 Sm: 0 	 T: kernel_launch(26.550304)
F:  8699433----T:  8738215 	 	 	 Kl: 33 	 Sm: 0 	 T: kernel_launch(26.186361)
F:  8960365----T:  8999720 	 	 	 Kl: 34 	 Sm: 0 	 T: kernel_launch(26.573261)
F:  9221870----T:  9260712 	 	 	 Kl: 35 	 Sm: 0 	 T: kernel_launch(26.226873)
F:  9482862----T:  9522007 	 	 	 Kl: 36 	 Sm: 0 	 T: kernel_launch(26.431465)
F:  9744157----T:  9782934 	 	 	 Kl: 37 	 Sm: 0 	 T: kernel_launch(26.182985)
F: 10005084----T: 10044152 	 	 	 Kl: 38 	 Sm: 0 	 T: kernel_launch(26.379473)
F: 10266302----T: 10305199 	 	 	 Kl: 39 	 Sm: 0 	 T: kernel_launch(26.264011)
F: 10527349----T: 10566554 	 	 	 Kl: 40 	 Sm: 0 	 T: kernel_launch(26.471979)
F: 10566554----T: 10567205 	 St: 0 Sz: 4096 	 Sm: 0 	 T: device_sync(0.439568)
F: 10566554----T: 10568614 	 St: 0 Sz: 61440 	 Sm: 0 	 T: device_sync(1.390952)
F: 10569265----T: 10569916 	 St: 0 Sz: 4096 	 Sm: 0 	 T: device_sync(0.439568)
F: 10569265----T: 10571325 	 St: 0 Sz: 61440 	 Sm: 0 	 T: device_sync(1.390952)
F: 10571976----T: 10572627 	 St: 0 Sz: 4096 	 Sm: 0 	 T: device_sync(0.439568)
F: 10571976----T: 10575899 	 St: 0 Sz: 126976 	 Sm: 0 	 T: device_sync(2.648886)
F: 10576550----T: 10577201 	 St: 0 Sz: 4096 	 Sm: 0 	 T: device_sync(0.439568)
F: 10576550----T: 10584230 	 St: 0 Sz: 258048 	 Sm: 0 	 T: device_sync(5.185685)
F: 10584881----T: 10585532 	 St: 0 Sz: 4096 	 Sm: 0 	 T: device_sync(0.439568)
F: 10584881----T: 10600090 	 St: 0 Sz: 520192 	 Sm: 0 	 T: device_sync(10.269413)
F: 10600741----T: 10601392 	 St: 0 Sz: 4096 	 Sm: 0 	 T: device_sync(0.439568)
F: 10600741----T: 10631013 	 St: 0 Sz: 1044480 	 Sm: 0 	 T: device_sync(20.440243)
F: 10631664----T: 10632315 	 St: 0 Sz: 4096 	 Sm: 0 	 T: device_sync(0.439568)
F: 10631664----T: 10633724 	 St: 0 Sz: 61440 	 Sm: 0 	 T: device_sync(1.390952)
F: 10634375----T: 10635026 	 St: 0 Sz: 4096 	 Sm: 0 	 T: device_sync(0.439568)
F: 10634375----T: 10636435 	 St: 0 Sz: 61440 	 Sm: 0 	 T: device_sync(1.390952)
F: 10637086----T: 10637737 	 St: 0 Sz: 4096 	 Sm: 0 	 T: device_sync(0.439568)
F: 10637086----T: 10641009 	 St: 0 Sz: 126976 	 Sm: 0 	 T: device_sync(2.648886)
F: 10641660----T: 10642311 	 St: 0 Sz: 4096 	 Sm: 0 	 T: device_sync(0.439568)
F: 10641660----T: 10649340 	 St: 0 Sz: 258048 	 Sm: 0 	 T: device_sync(5.185685)
F: 10649991----T: 10650642 	 St: 0 Sz: 4096 	 Sm: 0 	 T: device_sync(0.439568)
F: 10649991----T: 10665200 	 St: 0 Sz: 520192 	 Sm: 0 	 T: device_sync(10.269413)
F: 10665851----T: 10666502 	 St: 0 Sz: 4096 	 Sm: 0 	 T: device_sync(0.439568)
F: 10665851----T: 10688591 	 St: 0 Sz: 782336 	 Sm: 0 	 T: device_sync(15.354490)
Tot_prefetch_time: 0(cycle), 0.000000(us)
Tot_kernel_exec_time: 1680554(cycle), 1134.742798(us)
Tot_kernel_exec_time_and_fault_time: 2480294(cycle), 1674.742798(us)
Tot_memcpy_h2d_time: 130166(cycle), 87.890617(us)
Tot_memcpy_d2h_time: 0(cycle), 0.000000(us)
Tot_memcpy_time: 130166(cycle), 87.890617(us)
Tot_devicesync_time: 122688(cycle), 82.841324(us)
Tot_writeback_time: 0(cycle), 0.000000(us)
Tot_memcpy_d2h_sync_wb_time: 122688(cycle), 82.841324(us)
GPGPU-Sim: *** exit detected ***
