

        *** GPGPU-Sim Simulator Version 3.2.2  [build gpgpu-sim_git-commit-192e696560217fbde0ca32c0b7f1cb04a8d61fd3_modified_1] ***


GPGPU-Sim PTX: simulation mode 0 (can change with PTX_SIM_MODE_FUNC environment variable:
               1=functional simulation only, 0=detailed performance simulator)
GPGPU-Sim: Configuration options:

-network_mode                           1 # Interconnection network mode
-inter_config_file   config_fermi_islip.icnt # Interconnection network config file
-gpgpu_ptx_use_cuobjdump                    1 # Use cuobjdump to extract ptx and sass from binaries
-gpgpu_experimental_lib_support                    0 # Try to extract code from cuda libraries [Broken because of unknown cudaGetExportTable]
-gpgpu_ptx_convert_to_ptxplus                    0 # Convert SASS (native ISA) to ptxplus and run ptxplus
-gpgpu_ptx_force_max_capability                   20 # Force maximum compute capability
-gpgpu_ptx_inst_debug_to_file                    0 # Dump executed instructions' debug information to file
-gpgpu_ptx_inst_debug_file       inst_debug.txt # Executed instructions' debug output file
-gpgpu_ptx_inst_debug_thread_uid                    1 # Thread UID for executed instructions' debug output
-gpgpu_simd_model                       1 # 1 = post-dominator
-gpgpu_shader_core_pipeline              2048:32 # shader core pipeline config, i.e., {<nthread>:<warpsize>}
-gpgpu_tex_cache:l1  16:128:24,L:R:m:N:L,F:128:4,128:2 # per-shader L1 texture cache  (READ-ONLY) config  {<nsets>:<bsize>:<assoc>,<rep>:<wr>:<alloc>:<wr_alloc>,<mshr>:<N>:<merge>,<mq>:<rf>}
-gpgpu_const_cache:l1 128:64:2,L:R:f:N:L,A:2:64,4 # per-shader L1 constant memory cache  (READ-ONLY) config  {<nsets>:<bsize>:<assoc>,<rep>:<wr>:<alloc>:<wr_alloc>,<mshr>:<N>:<merge>,<mq>} 
-gpgpu_cache:il1     8:128:4,L:R:f:N:L,A:2:48,4 # shader L1 instruction cache config  {<nsets>:<bsize>:<assoc>,<rep>:<wr>:<alloc>:<wr_alloc>,<mshr>:<N>:<merge>,<mq>} 
-gpgpu_cache:dl1     64:128:6,L:L:m:N:H,A:128:8,8 # per-shader L1 data cache config  {<nsets>:<bsize>:<assoc>,<rep>:<wr>:<alloc>:<wr_alloc>,<mshr>:<N>:<merge>,<mq> | none}
-gpgpu_cache:dl1PrefL1                 none # per-shader L1 data cache config  {<nsets>:<bsize>:<assoc>,<rep>:<wr>:<alloc>:<wr_alloc>,<mshr>:<N>:<merge>,<mq> | none}
-gpgpu_cache:dl1PrefShared                 none # per-shader L1 data cache config  {<nsets>:<bsize>:<assoc>,<rep>:<wr>:<alloc>:<wr_alloc>,<mshr>:<N>:<merge>,<mq> | none}
-gmem_skip_L1D                          1 # global memory access skip L1D cache (implements -Xptxas -dlcm=cg, default=no skip)
-gpgpu_perfect_mem                      0 # enable perfect memory mode (no cache miss)
-n_regfile_gating_group                    4 # group of lanes that should be read/written together)
-gpgpu_clock_gated_reg_file                    0 # enable clock gated reg file for power calculations
-gpgpu_clock_gated_lanes                    0 # enable clock gated lanes for power calculations
-gpgpu_shader_registers                65536 # Number of registers per shader core. Limits number of concurrent CTAs. (default 8192)
-gpgpu_shader_cta                      32 # Maximum number of concurrent CTAs in shader (default 8)
-gpgpu_num_cta_barriers                   16 # Maximum number of named barriers per CTA (default 16)
-gpgpu_n_clusters                      28 # number of processing clusters
-gpgpu_n_cores_per_cluster                    1 # number of simd cores per cluster
-gpgpu_n_cluster_ejection_buffer_size                    8 # number of packets in ejection buffer
-gpgpu_n_ldst_response_buffer_size                    2 # number of response packets in ld/st unit ejection buffer
-gpgpu_shmem_size                   16384 # Size of shared memory per shader core (default 16kB)
-gpgpu_shmem_size                   98304 # Size of shared memory per shader core (default 16kB)
-gpgpu_shmem_size_PrefL1                16384 # Size of shared memory per shader core (default 16kB)
-gpgpu_shmem_size_PrefShared                16384 # Size of shared memory per shader core (default 16kB)
-gpgpu_shmem_num_banks                   32 # Number of banks in the shared memory in each shader core (default 16)
-gpgpu_shmem_limited_broadcast                    0 # Limit shared memory to do one broadcast per cycle (default on)
-gpgpu_shmem_warp_parts                    1 # Number of portions a warp is divided into for shared memory bank conflict check 
-gpgpu_warpdistro_shader                   -1 # Specify which shader core to collect the warp size distribution from
-gpgpu_warp_issue_shader                    0 # Specify which shader core to collect the warp issue distribution from
-gpgpu_local_mem_map                    1 # Mapping from local memory space address to simulated GPU physical address space (default = enabled)
-gpgpu_num_reg_banks                   32 # Number of register banks (default = 8)
-gpgpu_reg_bank_use_warp_id                    0 # Use warp ID in mapping registers to banks (default = off)
-gpgpu_operand_collector_num_units_sp                   20 # number of collector units (default = 4)
-gpgpu_operand_collector_num_units_sfu                    4 # number of collector units (default = 4)
-gpgpu_operand_collector_num_units_mem                    8 # number of collector units (default = 2)
-gpgpu_operand_collector_num_units_gen                    0 # number of collector units (default = 0)
-gpgpu_operand_collector_num_in_ports_sp                    4 # number of collector unit in ports (default = 1)
-gpgpu_operand_collector_num_in_ports_sfu                    1 # number of collector unit in ports (default = 1)
-gpgpu_operand_collector_num_in_ports_mem                    1 # number of collector unit in ports (default = 1)
-gpgpu_operand_collector_num_in_ports_gen                    0 # number of collector unit in ports (default = 0)
-gpgpu_operand_collector_num_out_ports_sp                    4 # number of collector unit in ports (default = 1)
-gpgpu_operand_collector_num_out_ports_sfu                    1 # number of collector unit in ports (default = 1)
-gpgpu_operand_collector_num_out_ports_mem                    1 # number of collector unit in ports (default = 1)
-gpgpu_operand_collector_num_out_ports_gen                    0 # number of collector unit in ports (default = 0)
-gpgpu_coalesce_arch                   13 # Coalescing arch (default = 13, anything else is off for now)
-gpgpu_num_sched_per_core                    2 # Number of warp schedulers per core
-gpgpu_max_insn_issue_per_warp                    2 # Max number of instructions that can be issued per warp in one cycle by scheduler
-gpgpu_simt_core_sim_order                    1 # Select the simulation order of cores in a cluster (0=Fix, 1=Round-Robin)
-gpgpu_pipeline_widths        4,1,1,4,1,1,6 # Pipeline widths ID_OC_SP,ID_OC_SFU,ID_OC_MEM,OC_EX_SP,OC_EX_SFU,OC_EX_MEM,EX_WB
-gpgpu_num_sp_units                     4 # Number of SP units (default=1)
-gpgpu_num_sfu_units                    1 # Number of SF units (default=1)
-gpgpu_num_mem_units                    1 # Number if ldst units (default=1) WARNING: not hooked up to anything
-gpgpu_scheduler                      gto # Scheduler configuration: < lrr | gto | two_level_active > If two_level_active:<num_active_warps>:<inner_prioritization>:<outer_prioritization>For complete list of prioritization values see shader.h enum scheduler_prioritization_typeDefault: gto
-gpgpu_concurrent_kernel_sm                    0 # Support concurrent kernels on a SM (default = disabled)
-tlb_size                            4096 # Number of tlb entries per SM.
-gpgpu_dram_scheduler                    1 # 0 = fifo, 1 = FR-FCFS (defaul)
-gpgpu_dram_partition_queues              8:8:8:8 # i2$:$2d:d2$:$2i
-l2_ideal                               0 # Use a ideal L2 cache that always hit
-gpgpu_cache:dl2     64:128:16,L:B:m:W:L,A:1024:1024,4:0,32 # unified banked L2 data cache config  {<nsets>:<bsize>:<assoc>,<rep>:<wr>:<alloc>:<wr_alloc>,<mshr>:<N>:<merge>,<mq>}
-gpgpu_cache:dl2_texture_only                    0 # L2 cache used for texture only
-gpgpu_n_mem                           11 # number of memory modules (e.g. memory controllers) in gpu
-gpgpu_n_sub_partition_per_mchannel                    2 # number of memory subpartition in each memory module
-gpgpu_n_mem_per_ctrlr                    1 # number of memory chips per memory controller
-gpgpu_memlatency_stat                   14 # track and display latency statistics 0x2 enables MC, 0x4 enables queue logs
-gpgpu_frfcfs_dram_sched_queue_size                   64 # 0 = unlimited (default); # entries per chip
-gpgpu_dram_return_queue_size                  116 # 0 = unlimited (default); # entries per chip
-gpgpu_dram_buswidth                    4 # default = 4 bytes (8 bytes per cycle at DDR)
-gpgpu_dram_burst_length                    8 # Burst length of each DRAM request (default = 4 data bus cycle)
-dram_data_command_freq_ratio                    4 # Frequency ratio between DRAM data bus and command bus (default = 2 times, i.e. DDR)
-gpgpu_dram_timing_opt nbk=16:CCD=2:RRD=6:RCD=12:RAS=28:RP=12:RC=40: CL=12:WL=4:CDLR=5:WR=12:nbkgrp=1:CCDL=0:RTPL=0 # DRAM timing parameters = {nbk:tCCD:tRRD:tRCD:tRAS:tRP:tRC:CL:WL:tCDLR:tWR:nbkgrp:tCCDL:tRTPL}
-rop_latency                          120 # ROP queue latency (default 85)
-dram_latency                         100 # DRAM latency (default 30)
-gpgpu_mem_addr_mapping dramid@8;00000000.00000000.00000000.00000000.0000RRRR.RRRRRRRR.RBBBCCCC.BCCSSSSS # mapping memory address to dram model {dramid@<start bit>;<memory address map>}
-gpgpu_mem_addr_test                    0 # run sweep test to check address mapping for aliased address
-gpgpu_mem_address_mask                    1 # 0 = old addressing mask, 1 = new addressing mask, 2 = new add. mask + flipped bank sel and chip sel bits
-gpuwattch_xml_file  gpuwattch_geforcegtx1080ti.xml # GPUWattch XML file
-power_simulation_enabled                    1 # Turn on power simulator (1=On, 0=Off)
-power_per_cycle_dump                    0 # Dump detailed power output each cycle
-power_trace_enabled                    0 # produce a file for the power trace (1=On, 0=Off)
-power_trace_zlevel                     6 # Compression level of the power trace output log (0=no comp, 9=highest)
-steady_power_levels_enabled                    0 # produce a file for the steady power levels (1=On, 0=Off)
-steady_state_definition                  8:4 # allowed deviation:number of samples
-gpgpu_max_cycle                        0 # terminates gpu simulation early (0 = no limit)
-gpgpu_max_insn                         0 # terminates gpu simulation early (0 = no limit)
-gpgpu_max_cta                          0 # terminates gpu simulation early (0 = no limit)
-gpgpu_runtime_stat                   500 # display runtime statistics such as dram utilization {<freq>:<flag>}
-liveness_message_freq                    1 # Minimum number of seconds between simulation liveness messages (0 = always print)
-gpgpu_flush_l1_cache                    0 # Flush L1 cache at the end of each kernel call
-gpgpu_flush_l2_cache                    0 # Flush L2 cache at the end of each kernel call
-gpgpu_deadlock_detect                    0 # Stop the simulation at deadlock (1=on (default), 0=off)
-gpgpu_ptx_instruction_classification                    0 # if enabled will classify ptx instruction types per kernel (Max 255 kernels now)
-gpgpu_ptx_sim_mode                     0 # Select between Performance (default) or Functional simulation (1)
-gpgpu_clock_domains 1481.0:2962.0:1481.0:2750.0 # Clock Domain Frequencies in MhZ {<Core Clock>:<ICNT Clock>:<L2 Clock>:<DRAM Clock>}
-gpgpu_max_concurrent_kernel                    8 # maximum kernels that can run concurrently on GPU
-gpgpu_cflog_interval                    0 # Interval between each snapshot in control flow logger
-visualizer_enabled                     0 # Turn on visualizer output (1=On, 0=Off)
-visualizer_outputfile                 NULL # Specifies the output log file for visualizer
-visualizer_zlevel                      6 # Compression level of the visualizer output log (0=no comp, 9=highest)
-trace_enabled                          0 # Turn on traces
-trace_components                    none # comma seperated list of traces to enable. Complete list found in trace_streams.tup. Default none
-trace_sampling_core                    0 # The core which is printed using CORE_DPRINTF. Default 0
-trace_sampling_memory_partition                   -1 # The memory partition which is printed using MEMPART_DPRINTF. Default -1 (i.e. all)
-gddr_size                       2.2472MB # Size of GDDR in MB/GB.(GLOBAL_HEAP_START, GLOBAL_HEAP_START + gddr_size) would be used for unmanged memory, (GLOBAL_HEAP_START + gddr_size, GLOBAL_HEAP_START + gddr_size*2) would be used for managed memory. 
-page_table_walk_latency                  100 # Average page table walk latency (in core cycle).
-eviction_policy                      lru # Memory eviction policy: lru or random.
-percentage_of_free_page_buffer                    0 # Percentage of free page buffer to trigger the page eviction.
-page_size                            4KB # GDDR page size, only 4KB/2MB avaliable.
-pcie_bandwith                   16.0GB/s # PCI-e bandwith per direction, in GB/s.
-enable_nvlink                          1 # Enable nvlink 2.0, 150.0GB/s
-enable_rdma                            1 # Enable remote direct memory access
-migrate_threshold                     10 # Access counter threshold for migrating the page from cpu to gpu
-sim_prof_enable                        1 # Enable gpgpu-sim profiler
-hardware_prefetch                      1 # Enable gpgpu-sim hardware prefetcher
-page_fault_latency                 66645 # Average fault latency (in core cycle).
-enable_accurate_simulation                    0 # Enable page fault functional simulation.
-enable_ptx_file_line_stats                    1 # Turn on PTX source line statistic profiling. (1 = On)
-ptx_line_stats_filename gpgpu_inst_stats.txt # Output file for PTX source line statistics.
-gpgpu_kernel_launch_latency               222150 # Kernel launch latency in cycles. Default: 0
-gpgpu_cdp_enabled                      0 # Turn on CDP
-save_embedded_ptx                      0 # saves ptx files embedded in binary as <n>.ptx
-keep                                   0 # keep intermediate files created by GPGPU-Sim when interfacing with external programs
-gpgpu_ptx_save_converted_ptxplus                    0 # Saved converted ptxplus to a file
-ptx_opcode_latency_int         4,13,4,5,145 # Opcode latencies for integers <ADD,MAX,MUL,MAD,DIV>Default 1,1,19,25,145
-ptx_opcode_latency_fp          4,13,4,5,39 # Opcode latencies for single precision floating points <ADD,MAX,MUL,MAD,DIV>Default 1,1,1,1,30
-ptx_opcode_latency_dp         8,19,8,8,330 # Opcode latencies for double precision floating points <ADD,MAX,MUL,MAD,DIV>Default 8,8,8,8,335
-ptx_opcode_initiation_int            1,2,2,2,8 # Opcode initiation intervals for integers <ADD,MAX,MUL,MAD,DIV>Default 1,1,4,4,32
-ptx_opcode_initiation_fp            1,2,1,1,4 # Opcode initiation intervals for single precision floating points <ADD,MAX,MUL,MAD,DIV>Default 1,1,1,1,5
-ptx_opcode_initiation_dp          1,2,1,1,130 # Opcode initiation intervals for double precision floating points <ADD,MAX,MUL,MAD,DIV>Default 8,8,8,8,130
-cdp_latency         7200,8000,100,12000,1600 # CDP API latency <cudaStreamCreateWithFlags, cudaGetParameterBufferV2_init_perWarp, cudaGetParameterBufferV2_perKernel, cudaLaunchDeviceV2_init_perWarp, cudaLaunchDevicV2_perKernel>Default 7200,8000,100,12000,1600
DRAM Timing Options:
nbk                                    16 # number of banks
CCD                                     2 # column to column delay
RRD                                     6 # minimal delay between activation of rows in different banks
RCD                                    12 # row to column delay
RAS                                    28 # time needed to activate row
RP                                     12 # time needed to precharge (deactivate) row
RC                                     40 # row cycle time
CDLR                                    5 # switching from write to read (changes tWTR)
WR                                     12 # last data-in to row precharge
CL                                     12 # CAS latency
WL                                      4 # Write latency
nbkgrp                                  1 # number of bank groups
CCDL                                    0 # column to column delay between accesses to different bank groups
RTPL                                    0 # read to precharge delay between accesses to different bank groups
Total number of memory sub partition = 22
addr_dec_mask[CHIP]  = 0000000000000000 	high:64 low:0
addr_dec_mask[BK]    = 0000000000007080 	high:15 low:7
addr_dec_mask[ROW]   = 000000000fff8000 	high:28 low:15
addr_dec_mask[COL]   = 0000000000000f7f 	high:12 low:0
addr_dec_mask[BURST] = 000000000000001f 	high:5 low:0
sub_partition_id_mask = 0000000000000080
GPGPU-Sim uArch: clock freqs: 1481000000.000000:2962000000.000000:1481000000.000000:2750000000.000000
GPGPU-Sim uArch: clock periods: 0.00000000067521944632:0.00000000033760972316:0.00000000067521944632:0.00000000036363636364
*** Initializing Memory Statistics ***
GPGPU-Sim uArch: interconnect node map (shaderID+MemID to icntID)
GPGPU-Sim uArch: Memory nodes ID start from index: 28
GPGPU-Sim uArch:    0   1   2   3   4   5   6
GPGPU-Sim uArch:    7   8   9  10  11  12  13
GPGPU-Sim uArch:   14  15  16  17  18  19  20
GPGPU-Sim uArch:   21  22  23  24  25  26  27
GPGPU-Sim uArch:   28  29  30  31  32  33  34
GPGPU-Sim uArch:   35  36  37  38  39  40  41
GPGPU-Sim uArch:   42  43  44  45  46  47  48
GPGPU-Sim uArch:   49
GPGPU-Sim uArch: interconnect node reverse map (icntID to shaderID+MemID)
GPGPU-Sim uArch: Memory nodes start from ID: 28
GPGPU-Sim uArch:    0   1   2   3   4   5   6
GPGPU-Sim uArch:    7   8   9  10  11  12  13
GPGPU-Sim uArch:   14  15  16  17  18  19  20
GPGPU-Sim uArch:   21  22  23  24  25  26  27
GPGPU-Sim uArch:   28  29  30  31  32  33  34
GPGPU-Sim uArch:   35  36  37  38  39  40  41
GPGPU-Sim uArch:   42  43  44  45  46  47  48
GPGPU-Sim uArch:   49
af71f55217d65a6a0e953de857351842  /home/gpuser/Desktop/gpgpu-sim_UVM/benchmarks/Managed/backprop/backprop
GPGPU-Sim uArch: performance model initialization complete.
GPGPU-Sim PTX: __cudaRegisterFatBinary, fat_cubin_handle = 1, filename=default
self exe links to: /home/gpuser/Desktop/gpgpu-sim_UVM/benchmarks/Managed/backprop/backprop
Running md5sum using "md5sum /home/gpuser/Desktop/gpgpu-sim_UVM/benchmarks/Managed/backprop/backprop "
Parsing file _cuobjdump_complete_output_ohkqrO
######### cuobjdump parser ########
## Adding new section ELF
Adding arch: sm_20
Adding identifier: default
## Adding new section ELF
Adding arch: sm_20
Adding identifier: default
## Adding new section PTX
Adding ptx filename: _cuobjdump_1.ptx
Adding arch: sm_20
Adding identifier: default
Done parsing!!!
GPGPU-Sim PTX: __cudaRegisterFunction _Z24bpnn_adjust_weights_cudaPfiS_iS_S_ : hostFun 0x0x402d5b, fat_cubin_handle = 1
GPGPU-Sim PTX: allocating shared region for "_Z22bpnn_layerforward_CUDAPfS_S_S_ii$__cuda_local_var_17900_34_non_const_input_node" from 0x0 to 0x40 (shared memory space)
GPGPU-Sim PTX: allocating shared region for "_Z22bpnn_layerforward_CUDAPfS_S_S_ii$__cuda_local_var_17901_34_non_const_weight_matrix" from 0x80 to 0x480 (shared memory space)
GPGPU-Sim PTX: instruction assembly for function '_Z22bpnn_layerforward_CUDAPfS_S_S_ii'...   done.
GPGPU-Sim PTX: finding reconvergence points for '_Z22bpnn_layerforward_CUDAPfS_S_S_ii'...
GPGPU-Sim PTX: Finding dominators for '_Z22bpnn_layerforward_CUDAPfS_S_S_ii'...
GPGPU-Sim PTX: Finding immediate dominators for '_Z22bpnn_layerforward_CUDAPfS_S_S_ii'...
GPGPU-Sim PTX: Finding postdominators for '_Z22bpnn_layerforward_CUDAPfS_S_S_ii'...
GPGPU-Sim PTX: Finding immediate postdominators for '_Z22bpnn_layerforward_CUDAPfS_S_S_ii'...
GPGPU-Sim PTX: pre-decoding instructions for '_Z22bpnn_layerforward_CUDAPfS_S_S_ii'...
GPGPU-Sim PTX: reconvergence points for _Z22bpnn_layerforward_CUDAPfS_S_S_ii...
GPGPU-Sim PTX:  1 (potential) branch divergence @  PC=0x068 (_1.ptx:47) @%p2 bra BB0_2;
GPGPU-Sim PTX:    immediate post dominator      @  PC=0x0a0 (_1.ptx:57) cvta.to.global.u64 %rd3, %rd8;
GPGPU-Sim PTX:  2 (potential) branch divergence @  PC=0x168 (_1.ptx:82) @%p3 bra BB0_7;
GPGPU-Sim PTX:    immediate post dominator      @  PC=0x250 (_1.ptx:119) setp.eq.s32%p1, %r3, 0;
GPGPU-Sim PTX:  3 (potential) branch divergence @  PC=0x1c8 (_1.ptx:97) @%p4 bra BB0_6;
GPGPU-Sim PTX:    immediate post dominator      @  PC=0x228 (_1.ptx:112) bar.sync 0;
GPGPU-Sim PTX:  4 (potential) branch divergence @  PC=0x248 (_1.ptx:116) @%p5 bra BB0_4;
GPGPU-Sim PTX:    immediate post dominator      @  PC=0x250 (_1.ptx:119) setp.eq.s32%p1, %r3, 0;
GPGPU-Sim PTX:  5 (potential) branch divergence @  PC=0x270 (_1.ptx:123) @!%p1 bra BB0_9;
GPGPU-Sim PTX:    immediate post dominator      @  PC=0x2c8 (_1.ptx:138) ret;
GPGPU-Sim PTX:  6 (potential) branch divergence @  PC=0x278 (_1.ptx:124) bra.uni BB0_8;
GPGPU-Sim PTX:    immediate post dominator      @  PC=0x280 (_1.ptx:127) cvt.u32.u64%r20, %rd1;
GPGPU-Sim PTX: ... end of reconvergence points for _Z22bpnn_layerforward_CUDAPfS_S_S_ii
GPGPU-Sim PTX: ... done pre-decoding instructions for '_Z22bpnn_layerforward_CUDAPfS_S_S_ii'.
GPGPU-Sim PTX: instruction assembly for function '_Z24bpnn_adjust_weights_cudaPfiS_iS_S_'...   done.
GPGPU-Sim PTX: finding reconvergence points for '_Z24bpnn_adjust_weights_cudaPfiS_iS_S_'...
GPGPU-Sim PTX: Finding dominators for '_Z24bpnn_adjust_weights_cudaPfiS_iS_S_'...
GPGPU-Sim PTX: Finding immediate dominators for '_Z24bpnn_adjust_weights_cudaPfiS_iS_S_'...
GPGPU-Sim PTX: Finding postdominators for '_Z24bpnn_adjust_weights_cudaPfiS_iS_S_'...
GPGPU-Sim PTX: Finding immediate postdominators for '_Z24bpnn_adjust_weights_cudaPfiS_iS_S_'...
GPGPU-Sim PTX: pre-decoding instructions for '_Z24bpnn_adjust_weights_cudaPfiS_iS_S_'...
GPGPU-Sim PTX: reconvergence points for _Z24bpnn_adjust_weights_cudaPfiS_iS_S_...
GPGPU-Sim PTX:  1 (potential) branch divergence @  PC=0x470 (_1.ptx:210) @%p1 bra BB1_2;
GPGPU-Sim PTX:    immediate post dominator      @  PC=0x530 (_1.ptx:237) ret;
GPGPU-Sim PTX: ... end of reconvergence points for _Z24bpnn_adjust_weights_cudaPfiS_iS_S_
GPGPU-Sim PTX: ... done pre-decoding instructions for '_Z24bpnn_adjust_weights_cudaPfiS_iS_S_'.
GPGPU-Sim PTX: finished parsing EMBEDDED .ptx file _1.ptx
Adding _cuobjdump_1.ptx with cubin handle 1
GPGPU-Sim PTX: extracting embedded .ptx to temporary file "_ptx_l9uiGl"
Running: cat _ptx_l9uiGl | sed 's/.version 1.5/.version 1.4/' | sed 's/, texmode_independent//' | sed 's/\(\.extern \.const\[1\] .b8 \w\+\)\[\]/\1\[1\]/' | sed 's/const\[.\]/const\[0\]/g' > _ptx2_H5KcVS
GPGPU-Sim PTX: generating ptxinfo using "$CUDA_INSTALL_PATH/bin/ptxas --gpu-name=sm_20 -v _ptx2_H5KcVS --output-file  /dev/null 2> _ptx_l9uiGlinfo"
GPGPU-Sim PTX: Kernel '_Z24bpnn_adjust_weights_cudaPfiS_iS_S_' : regs=22, lmem=0, smem=0, cmem=80
GPGPU-Sim PTX: Kernel '_Z22bpnn_layerforward_CUDAPfS_S_S_ii' : regs=11, lmem=0, smem=1088, cmem=72
GPGPU-Sim PTX: removing ptxinfo using "rm -f _ptx_l9uiGl _ptx2_H5KcVS _ptx_l9uiGlinfo"
GPGPU-Sim PTX: loading globals with explicit initializers... 
GPGPU-Sim PTX: finished loading globals (0 bytes total).
GPGPU-Sim PTX: loading constants with explicit initializers...  done.
GPGPU-Sim PTX: __cudaRegisterFunction _Z22bpnn_layerforward_CUDAPfS_S_S_ii : hostFun 0x0x402c0a, fat_cubin_handle = 1
Random number generator seed: 7
cudaMallocManaged called
cudaMallocManaged called
cudaMallocManaged called
cudaMallocManaged called
cudaMallocManaged called
cudaMallocManaged called
cudaMallocManaged called
cudaMallocManaged called
cudaMallocManaged called
cudaMallocManaged called
cudaMallocManaged called
Input layer size : 18000
Starting training kernel
Performing GPU computation

GPGPU-Sim PTX: cudaLaunch for 0x0x402c0a (mode=performance simulation) on stream 0
GPGPU-Sim PTX: pushing kernel '_Z22bpnn_layerforward_CUDAPfS_S_S_ii' to stream 0, gridDim= (1,1125,1) blockDim = (16,16,1) 
GPGPU-Sim uArch: Shader 1 bind to kernel 1 '_Z22bpnn_layerforward_CUDAPfS_S_S_ii'
GPGPU-Sim uArch: CTA/core = 8, limited by: threads
GPGPU-Sim uArch: Shader 2 bind to kernel 1 '_Z22bpnn_layerforward_CUDAPfS_S_S_ii'
GPGPU-Sim uArch: Shader 3 bind to kernel 1 '_Z22bpnn_layerforward_CUDAPfS_S_S_ii'
GPGPU-Sim uArch: Shader 4 bind to kernel 1 '_Z22bpnn_layerforward_CUDAPfS_S_S_ii'
GPGPU-Sim uArch: Shader 5 bind to kernel 1 '_Z22bpnn_layerforward_CUDAPfS_S_S_ii'
GPGPU-Sim uArch: Shader 6 bind to kernel 1 '_Z22bpnn_layerforward_CUDAPfS_S_S_ii'
GPGPU-Sim uArch: Shader 7 bind to kernel 1 '_Z22bpnn_layerforward_CUDAPfS_S_S_ii'
GPGPU-Sim uArch: Shader 8 bind to kernel 1 '_Z22bpnn_layerforward_CUDAPfS_S_S_ii'
GPGPU-Sim uArch: Shader 9 bind to kernel 1 '_Z22bpnn_layerforward_CUDAPfS_S_S_ii'
GPGPU-Sim uArch: Shader 10 bind to kernel 1 '_Z22bpnn_layerforward_CUDAPfS_S_S_ii'
GPGPU-Sim uArch: Shader 11 bind to kernel 1 '_Z22bpnn_layerforward_CUDAPfS_S_S_ii'
GPGPU-Sim uArch: Shader 12 bind to kernel 1 '_Z22bpnn_layerforward_CUDAPfS_S_S_ii'
GPGPU-Sim uArch: Shader 13 bind to kernel 1 '_Z22bpnn_layerforward_CUDAPfS_S_S_ii'
GPGPU-Sim uArch: Shader 14 bind to kernel 1 '_Z22bpnn_layerforward_CUDAPfS_S_S_ii'
GPGPU-Sim uArch: Shader 15 bind to kernel 1 '_Z22bpnn_layerforward_CUDAPfS_S_S_ii'
GPGPU-Sim uArch: Shader 16 bind to kernel 1 '_Z22bpnn_layerforward_CUDAPfS_S_S_ii'
GPGPU-Sim uArch: Shader 17 bind to kernel 1 '_Z22bpnn_layerforward_CUDAPfS_S_S_ii'
GPGPU-Sim uArch: Shader 18 bind to kernel 1 '_Z22bpnn_layerforward_CUDAPfS_S_S_ii'
GPGPU-Sim uArch: Shader 19 bind to kernel 1 '_Z22bpnn_layerforward_CUDAPfS_S_S_ii'
GPGPU-Sim uArch: Shader 20 bind to kernel 1 '_Z22bpnn_layerforward_CUDAPfS_S_S_ii'
GPGPU-Sim uArch: Shader 21 bind to kernel 1 '_Z22bpnn_layerforward_CUDAPfS_S_S_ii'
GPGPU-Sim uArch: Shader 22 bind to kernel 1 '_Z22bpnn_layerforward_CUDAPfS_S_S_ii'
GPGPU-Sim uArch: Shader 23 bind to kernel 1 '_Z22bpnn_layerforward_CUDAPfS_S_S_ii'
GPGPU-Sim uArch: Shader 24 bind to kernel 1 '_Z22bpnn_layerforward_CUDAPfS_S_S_ii'
GPGPU-Sim uArch: Shader 25 bind to kernel 1 '_Z22bpnn_layerforward_CUDAPfS_S_S_ii'
GPGPU-Sim uArch: Shader 26 bind to kernel 1 '_Z22bpnn_layerforward_CUDAPfS_S_S_ii'
GPGPU-Sim uArch: Shader 27 bind to kernel 1 '_Z22bpnn_layerforward_CUDAPfS_S_S_ii'
GPGPU-Sim uArch: Shader 0 bind to kernel 1 '_Z22bpnn_layerforward_CUDAPfS_S_S_ii'
Destroy streams for kernel 1: size 0
kernel_name = _Z22bpnn_layerforward_CUDAPfS_S_S_ii 
kernel_launch_uid = 1 
gpu_sim_cycle = 69425
gpu_sim_insn = 30888000
gpu_ipc =     444.9118
gpu_tot_sim_cycle = 291575
gpu_tot_sim_insn = 30888000
gpu_tot_ipc =     105.9350
gpu_tot_issued_cta = 1125
max_total_param_size = 0
gpu_stall_dramfull = 836
gpu_stall_icnt2sh    = 64735
partiton_reqs_in_parallel = 1526514
partiton_reqs_in_parallel_total    = 0
partiton_level_parallism =      21.9880
partiton_level_parallism_total  =       5.2354
partiton_reqs_in_parallel_util = 1526514
partiton_reqs_in_parallel_util_total    = 0
gpu_sim_cycle_parition_util = 69425
gpu_tot_sim_cycle_parition_util    = 0
partiton_level_parallism_util =      21.9880
partiton_level_parallism_util_total  =      21.9880
partiton_replys_in_parallel = 54758
partiton_replys_in_parallel_total    = 0
L2_BW  =      74.7596 GB/Sec
L2_BW_total  =      17.8005 GB/Sec
gpu_total_sim_rate=115253

========= Core cache stats =========
L1I_cache:
	L1I_total_cache_accesses = 642375
	L1I_total_cache_misses = 3564
	L1I_total_cache_miss_rate = 0.0055
	L1I_total_cache_pending_hits = 0
	L1I_total_cache_reservation_fails = 6846
L1D_cache:
	L1D_cache_core[0]: Access = 0, Miss = 0, Miss_rate = -nan, Pending_hits = 0, Reservation_fails = 0
	L1D_cache_core[1]: Access = 0, Miss = 0, Miss_rate = -nan, Pending_hits = 0, Reservation_fails = 0
	L1D_cache_core[2]: Access = 0, Miss = 0, Miss_rate = -nan, Pending_hits = 0, Reservation_fails = 0
	L1D_cache_core[3]: Access = 0, Miss = 0, Miss_rate = -nan, Pending_hits = 0, Reservation_fails = 0
	L1D_cache_core[4]: Access = 0, Miss = 0, Miss_rate = -nan, Pending_hits = 0, Reservation_fails = 0
	L1D_cache_core[5]: Access = 0, Miss = 0, Miss_rate = -nan, Pending_hits = 0, Reservation_fails = 0
	L1D_cache_core[6]: Access = 0, Miss = 0, Miss_rate = -nan, Pending_hits = 0, Reservation_fails = 0
	L1D_cache_core[7]: Access = 0, Miss = 0, Miss_rate = -nan, Pending_hits = 0, Reservation_fails = 0
	L1D_cache_core[8]: Access = 0, Miss = 0, Miss_rate = -nan, Pending_hits = 0, Reservation_fails = 0
	L1D_cache_core[9]: Access = 0, Miss = 0, Miss_rate = -nan, Pending_hits = 0, Reservation_fails = 0
	L1D_cache_core[10]: Access = 0, Miss = 0, Miss_rate = -nan, Pending_hits = 0, Reservation_fails = 0
	L1D_cache_core[11]: Access = 0, Miss = 0, Miss_rate = -nan, Pending_hits = 0, Reservation_fails = 0
	L1D_cache_core[12]: Access = 0, Miss = 0, Miss_rate = -nan, Pending_hits = 0, Reservation_fails = 0
	L1D_cache_core[13]: Access = 0, Miss = 0, Miss_rate = -nan, Pending_hits = 0, Reservation_fails = 0
	L1D_cache_core[14]: Access = 0, Miss = 0, Miss_rate = -nan, Pending_hits = 0, Reservation_fails = 0
	L1D_cache_core[15]: Access = 0, Miss = 0, Miss_rate = -nan, Pending_hits = 0, Reservation_fails = 0
	L1D_cache_core[16]: Access = 0, Miss = 0, Miss_rate = -nan, Pending_hits = 0, Reservation_fails = 0
	L1D_cache_core[17]: Access = 0, Miss = 0, Miss_rate = -nan, Pending_hits = 0, Reservation_fails = 0
	L1D_cache_core[18]: Access = 0, Miss = 0, Miss_rate = -nan, Pending_hits = 0, Reservation_fails = 0
	L1D_cache_core[19]: Access = 0, Miss = 0, Miss_rate = -nan, Pending_hits = 0, Reservation_fails = 0
	L1D_cache_core[20]: Access = 0, Miss = 0, Miss_rate = -nan, Pending_hits = 0, Reservation_fails = 0
	L1D_cache_core[21]: Access = 0, Miss = 0, Miss_rate = -nan, Pending_hits = 0, Reservation_fails = 0
	L1D_cache_core[22]: Access = 0, Miss = 0, Miss_rate = -nan, Pending_hits = 0, Reservation_fails = 0
	L1D_cache_core[23]: Access = 0, Miss = 0, Miss_rate = -nan, Pending_hits = 0, Reservation_fails = 0
	L1D_cache_core[24]: Access = 0, Miss = 0, Miss_rate = -nan, Pending_hits = 0, Reservation_fails = 0
	L1D_cache_core[25]: Access = 0, Miss = 0, Miss_rate = -nan, Pending_hits = 0, Reservation_fails = 0
	L1D_cache_core[26]: Access = 0, Miss = 0, Miss_rate = -nan, Pending_hits = 0, Reservation_fails = 0
	L1D_cache_core[27]: Access = 0, Miss = 0, Miss_rate = -nan, Pending_hits = 0, Reservation_fails = 0
	L1D_total_cache_accesses = 0
	L1D_total_cache_misses = 0
	L1D_total_cache_pending_hits = 0
	L1D_total_cache_reservation_fails = 0
	L1D_cache_data_port_util = 0.000
	L1D_cache_fill_port_util = 0.000
L1C_cache:
	L1C_total_cache_accesses = 36000
	L1C_total_cache_misses = 1792
	L1C_total_cache_miss_rate = 0.0498
	L1C_total_cache_pending_hits = 0
	L1C_total_cache_reservation_fails = 4886
L1T_cache:
	L1T_total_cache_accesses = 0
	L1T_total_cache_misses = 0
	L1T_total_cache_pending_hits = 0
	L1T_total_cache_reservation_fails = 0

Total_core_cache_stats:
	Total_core_cache_stats_breakdown[GLOBAL_ACC_R][HIT] = 0
	Total_core_cache_stats_breakdown[GLOBAL_ACC_R][HIT_RESERVED] = 0
	Total_core_cache_stats_breakdown[GLOBAL_ACC_R][MISS] = 0
	Total_core_cache_stats_breakdown[GLOBAL_ACC_R][RESERVATION_FAIL] = 0
	Total_core_cache_stats_breakdown[LOCAL_ACC_R][HIT] = 0
	Total_core_cache_stats_breakdown[LOCAL_ACC_R][HIT_RESERVED] = 0
	Total_core_cache_stats_breakdown[LOCAL_ACC_R][MISS] = 0
	Total_core_cache_stats_breakdown[LOCAL_ACC_R][RESERVATION_FAIL] = 0
	Total_core_cache_stats_breakdown[CONST_ACC_R][HIT] = 34208
	Total_core_cache_stats_breakdown[CONST_ACC_R][HIT_RESERVED] = 0
	Total_core_cache_stats_breakdown[CONST_ACC_R][MISS] = 1792
	Total_core_cache_stats_breakdown[CONST_ACC_R][RESERVATION_FAIL] = 4886
	Total_core_cache_stats_breakdown[TEXTURE_ACC_R][HIT] = 0
	Total_core_cache_stats_breakdown[TEXTURE_ACC_R][HIT_RESERVED] = 0
	Total_core_cache_stats_breakdown[TEXTURE_ACC_R][MISS] = 0
	Total_core_cache_stats_breakdown[TEXTURE_ACC_R][RESERVATION_FAIL] = 0
	Total_core_cache_stats_breakdown[GLOBAL_ACC_W][HIT] = 0
	Total_core_cache_stats_breakdown[GLOBAL_ACC_W][HIT_RESERVED] = 0
	Total_core_cache_stats_breakdown[GLOBAL_ACC_W][MISS] = 0
	Total_core_cache_stats_breakdown[GLOBAL_ACC_W][RESERVATION_FAIL] = 0
	Total_core_cache_stats_breakdown[LOCAL_ACC_W][HIT] = 0
	Total_core_cache_stats_breakdown[LOCAL_ACC_W][HIT_RESERVED] = 0
	Total_core_cache_stats_breakdown[LOCAL_ACC_W][MISS] = 0
	Total_core_cache_stats_breakdown[LOCAL_ACC_W][RESERVATION_FAIL] = 0
	Total_core_cache_stats_breakdown[L1_WRBK_ACC][HIT] = 0
	Total_core_cache_stats_breakdown[L1_WRBK_ACC][HIT_RESERVED] = 0
	Total_core_cache_stats_breakdown[L1_WRBK_ACC][MISS] = 0
	Total_core_cache_stats_breakdown[L1_WRBK_ACC][RESERVATION_FAIL] = 0
	Total_core_cache_stats_breakdown[L2_WRBK_ACC][HIT] = 0
	Total_core_cache_stats_breakdown[L2_WRBK_ACC][HIT_RESERVED] = 0
	Total_core_cache_stats_breakdown[L2_WRBK_ACC][MISS] = 0
	Total_core_cache_stats_breakdown[L2_WRBK_ACC][RESERVATION_FAIL] = 0
	Total_core_cache_stats_breakdown[INST_ACC_R][HIT] = 638811
	Total_core_cache_stats_breakdown[INST_ACC_R][HIT_RESERVED] = 0
	Total_core_cache_stats_breakdown[INST_ACC_R][MISS] = 3564
	Total_core_cache_stats_breakdown[INST_ACC_R][RESERVATION_FAIL] = 6846
	Total_core_cache_stats_breakdown[L1_WR_ALLOC_R][HIT] = 0
	Total_core_cache_stats_breakdown[L1_WR_ALLOC_R][HIT_RESERVED] = 0
	Total_core_cache_stats_breakdown[L1_WR_ALLOC_R][MISS] = 0
	Total_core_cache_stats_breakdown[L1_WR_ALLOC_R][RESERVATION_FAIL] = 0
	Total_core_cache_stats_breakdown[L2_WR_ALLOC_R][HIT] = 0
	Total_core_cache_stats_breakdown[L2_WR_ALLOC_R][HIT_RESERVED] = 0
	Total_core_cache_stats_breakdown[L2_WR_ALLOC_R][MISS] = 0
	Total_core_cache_stats_breakdown[L2_WR_ALLOC_R][RESERVATION_FAIL] = 0
	Total_core_cache_stats_breakdown[CONST_ACC_R][TOTAL_ACCESS] = 36000
	Total_core_cache_stats_breakdown[INST_ACC_R][TOTAL_ACCESS] = 642375
Shader 0 warp_id issue ditsribution:
warp_id:
0, 1, 2, 3, 4, 5, 6, 7, 8, 9, 10, 11, 12, 13, 14, 15, 16, 17, 18, 19, 20, 21, 22, 23, 24, 25, 26, 27, 28, 29, 30, 31, 32, 33, 34, 35, 36, 37, 38, 39, 40, 41, 42, 43, 44, 45, 46, 47, 48, 49, 50, 51, 52, 53, 54, 55, 56, 57, 58, 59, 60, 61, 62, 63, 
distro:
903, 715, 777, 715, 842, 713, 782, 716, 900, 713, 774, 711, 841, 710, 780, 716, 903, 715, 776, 713, 841, 715, 785, 719, 902, 713, 777, 711, 842, 713, 785, 716, 903, 714, 778, 713, 844, 714, 786, 718, 904, 714, 779, 715, 843, 715, 787, 718, 900, 714, 774, 711, 839, 715, 783, 720, 902, 714, 777, 715, 842, 714, 783, 719, 
gpgpu_n_tot_thrd_icount = 39060000
gpgpu_n_tot_w_icount = 1220625
gpgpu_n_stall_shd_mem = 47995
gpgpu_n_mem_read_local = 0
gpgpu_n_mem_write_local = 0
gpgpu_n_mem_read_global = 27562
gpgpu_n_mem_write_global = 27000
gpgpu_n_mem_texture = 0
gpgpu_n_mem_const = 28
gpgpu_n_load_insn  = 306000
gpgpu_n_store_insn = 306000
gpgpu_n_shmem_insn = 2286000
gpgpu_n_tex_insn = 0
gpgpu_n_const_mem_insn = 0
gpgpu_n_param_mem_insn = 1152000
gpgpu_n_shmem_bkconflict = 0
gpgpu_n_cache_bkconflict = 0
gpgpu_n_intrawarp_mshr_merge = 0
gpgpu_n_cmem_portconflict = 4886
gpgpu_stall_shd_mem[c_mem][bk_conf] = 4886
gpgpu_stall_shd_mem[c_mem][mshr_rc] = 0
gpgpu_stall_shd_mem[c_mem][icnt_rc] = 0
gpgpu_stall_shd_mem[c_mem][data_port_stall] = 0
gpgpu_stall_shd_mem[t_mem][mshr_rc] = 0
gpgpu_stall_shd_mem[t_mem][icnt_rc] = 0
gpgpu_stall_shd_mem[t_mem][data_port_stall] = 0
gpgpu_stall_shd_mem[s_mem][bk_conf] = 0
gpgpu_stall_shd_mem[gl_mem][bk_conf] = 0
gpgpu_stall_shd_mem[gl_mem][coal_stall] = 37024
gpgpu_stall_shd_mem[gl_mem][data_port_stall] = 0
gpgpu_stall_shd_mem[g_mem_ld][mshr_rc] = 0
gpgpu_stall_shd_mem[g_mem_ld][icnt_rc] = 6085
gpgpu_stall_shd_mem[g_mem_ld][wb_icnt_rc] = 0
gpgpu_stall_shd_mem[g_mem_ld][wb_rsrv_fail] = 0
gpgpu_stall_shd_mem[g_mem_st][mshr_rc] = 0
gpgpu_stall_shd_mem[g_mem_st][icnt_rc] = 0
gpgpu_stall_shd_mem[g_mem_st][wb_icnt_rc] = 0
gpgpu_stall_shd_mem[g_mem_st][wb_rsrv_fail] = 0
gpgpu_stall_shd_mem[l_mem_ld][mshr_rc] = 0
gpgpu_stall_shd_mem[l_mem_ld][icnt_rc] = 0
gpgpu_stall_shd_mem[l_mem_ld][wb_icnt_rc] = 0
gpgpu_stall_shd_mem[l_mem_ld][wb_rsrv_fail] = 0
gpgpu_stall_shd_mem[l_mem_st][mshr_rc] = 0
gpgpu_stall_shd_mem[l_mem_st][icnt_rc] = 0
gpgpu_stall_shd_mem[l_mem_ld][wb_icnt_rc] = 0
gpgpu_stall_shd_mem[l_mem_ld][wb_rsrv_fail] = 0
gpu_reg_bank_conflict_stalls = 0
Warp Occupancy Distribution:
Stall:54765	W0_Idle:56973	W0_Scoreboard:2691782	W1:0	W2:144000	W3:0	W4:0	W5:0	W6:0	W7:0	W8:0	W9:0	W10:0	W11:0	W12:0	W13:0	W14:0	W15:0	W16:185625	W17:0	W18:0	W19:0	W20:0	W21:0	W22:0	W23:0	W24:0	W25:0	W26:0	W27:0	W28:0	W29:0	W30:0	W31:0	W32:891000
traffic_breakdown_coretomem[CONST_ACC_R] = 224 {8:28,}
traffic_breakdown_coretomem[GLOBAL_ACC_R] = 220496 {8:27562,}
traffic_breakdown_coretomem[GLOBAL_ACC_W] = 2087968 {40:13501,72:4499,136:9000,}
traffic_breakdown_coretomem[INST_ACC_R] = 1344 {8:168,}
traffic_breakdown_memtocore[CONST_ACC_R] = 2016 {72:28,}
traffic_breakdown_memtocore[GLOBAL_ACC_R] = 2200496 {40:12375,72:5624,136:9563,}
traffic_breakdown_memtocore[GLOBAL_ACC_W] = 216000 {8:27000,}
traffic_breakdown_memtocore[INST_ACC_R] = 22848 {136:168,}
maxmrqlatency = 444 
maxdqlatency = 0 
maxmflatency = 21088 
averagemflatency = 2729 
max_icnt2mem_latency = 20721 
max_icnt2sh_latency = 291574 
mrq_lat_table:5733 	358 	861 	2366 	1692 	1177 	1773 	1704 	1873 	0 	0 	0 	0 	0 	0 	0 	0 	0 	0 	0 	0 	0 	0 	0 	0 	0 	0 	0 	0 	0 	0 	0 	
dq_lat_table:0 	0 	0 	0 	0 	0 	0 	0 	0 	0 	0 	0 	0 	0 	0 	0 	0 	0 	0 	0 	0 	0 	0 	0 	0 	0 	0 	0 	0 	0 	0 	0 	
mf_lat_table:0 	0 	0 	0 	0 	0 	0 	26268 	11079 	65 	1042 	2228 	5228 	7941 	739 	0 	0 	0 	0 	0 	0 	0 	0 	0 	0 	0 	0 	0 	0 	0 	0 	0 	
icnt2mem_lat_table:0 	0 	8539 	16298 	1488 	16 	10430 	744 	52 	81 	1012 	2933 	6065 	6361 	739 	0 	0 	0 	0 	0 	0 	0 	0 	0 	
icnt2sh_lat_table:0 	0 	6001 	13406 	7497 	670 	16 	0 	0 	0 	0 	0 	0 	0 	0 	0 	0 	14425 	12575 	0 	0 	0 	0 	0 	
mf_lat_pw_table:0 	0 	0 	0 	0 	0 	0 	37 	9 	4 	4 	14 	24 	7 	1 	0 	0 	0 	0 	0 	0 	0 	0 	0 	0 	0 	0 	0 	0 	0 	0 	0 	
maximum concurrent accesses to same row:
dram[0]:        16        16        16        16        16        16        16        16        16        16        85        93        96        95        16        16 
dram[1]:        16        16        16        16        16        16        16        16        16        16        85        84        87       102        16        16 
dram[2]:        16        16        16        16        16        16        16        16        16        16        77        76       114        87        16        16 
dram[3]:        16        16        16        16        16        16        16        16        16        16        94        78        63       111        16        16 
dram[4]:        16        16        16        16        16        16        16        16        16        16        85        77        87        83        16        16 
dram[5]:        16        16        16        16        16        16        16        16        16        16        94        94       103       120        16        16 
dram[6]:        16        16        16        16        16        16        16        16        16        16        94        86       104        87        16        16 
dram[7]:        16        16        16        16        16        16        16        16        16        16        94        94       100        79        16        16 
dram[8]:        16        16        16        16        16        16        16        16        16        16        94        94        87        88        16        16 
dram[9]:        16        16        16        16        16        16        16        16        16        16        86       102        95        84        16        16 
dram[10]:        16        16        16        16        16        16        16        16        16        16        94        94        87        87        16        16 
maximum service time to same row:
dram[0]:     24886     24856     19858     19860     19846     19847     19561     19561     24080     24082     26550     26465     25033     24918     25288     25286 
dram[1]:     24849     24849     19857     19860     19847     19851     19561     19561     24082     24083     26603     26519     24917     25037     25286     25282 
dram[2]:     24855     24856     19857     19859     19853     19856     19562     16228     24090     24082     26499     26402     24883     24699     25274     25267 
dram[3]:     24848     24844     19856     19859     19857     19850     19561     19561     24082     24083     26445     26597     24870     24803     25266     25263 
dram[4]:     24795     24779     19859     19857     19850     19850     19561     19561     24085     24089     26256     26358     24899     24967     25237     25235 
dram[5]:     24852     24852     19857     19857     19866     19866     19560     19563     24093     24063     26476     26752     24636     24900     25253     25225 
dram[6]:     24861     24861     19856     19858     19866     19874     19561     19561     24064     24065     26780     26827     25035     22127     25225     25224 
dram[7]:     24874     24876     19858     19858     19875     19873     19555     19556     24062     24063     26720     26688     24921     25086     25222     25237 
dram[8]:     24870     24857     19854     19860     19834     19835     19553     19555     24064     24065     26578     26409     24982     24789     25232     25233 
dram[9]:     24867     24867     19859     19858     19835     19836     19553     19555     24066     24068     26696     26619     25156     24972     25237     25243 
dram[10]:     24816     24828     19857     19858     19839     19838     19554     19554     24068     24069     26728     26500     25039     25135     25290     25289 
average row accesses per activate:
dram[0]: 13.500000 13.250000 16.000000 16.000000 12.250000 12.250000 10.666667 10.666667  9.500000  9.500000 36.428570 37.000000 35.333332 25.375000 16.000000 16.000000 
dram[1]: 13.250000 13.250000 16.000000 16.000000 12.250000 12.250000 10.666667 10.666667  9.500000  9.333333 37.285713 36.285713 24.375000 18.083334 16.000000 16.000000 
dram[2]: 13.000000 13.000000 16.000000 16.000000 12.250000 12.250000 10.666667 10.666667  9.333333  9.333333 33.857143 34.714287 27.500000 25.375000 16.000000 16.000000 
dram[3]: 13.000000 13.000000 16.000000 16.000000 12.250000 12.250000 10.666667 10.666667  9.333333  9.333333 38.285713 36.000000 22.375000 21.299999 16.000000 16.000000 
dram[4]: 13.000000 13.000000 16.000000 16.000000 12.250000 12.250000 10.666667 10.666667  9.333333  9.333333 35.857143 34.857143 24.375000 25.875000 13.000000 13.000000 
dram[5]: 13.000000 13.000000 16.000000 16.000000 12.250000 12.250000 10.666667 10.666667  9.333333  9.333333 37.142857 40.285713 26.375000 37.833332 13.000000 13.000000 
dram[6]: 13.000000 13.000000 16.000000 16.000000 12.500000 12.500000 10.666667 10.666667  9.333333  7.000000 38.571430 37.571430 33.833332 24.375000 13.000000 13.000000 
dram[7]: 13.000000 13.000000 16.000000 16.000000 12.500000 12.500000 10.666667 10.666667  7.000000  7.000000 38.571430 35.142857 34.500000 32.500000 16.000000 16.000000 
dram[8]: 13.000000 13.000000 16.000000 16.000000 12.500000 12.500000 10.666667 10.666667  7.000000  7.000000 39.714287 36.285713 32.500000 35.333332 16.000000 16.000000 
dram[9]: 13.000000 13.000000 16.000000 16.000000 12.500000 12.500000 10.666667 10.666667  7.000000  9.333333 35.142857 39.714287 35.166668 32.333332 16.000000 16.000000 
dram[10]: 13.000000 13.000000 16.000000 16.000000 12.500000 12.500000 10.666667 10.666667  7.000000  9.333333 36.285713 38.571430 32.500000 33.833332 16.000000 16.000000 
average row locality = 17537/928 = 18.897629
number of total memory accesses made:
dram[0]:         0         0         0         0         0         0         0         0         0         0         0         0         0         0         0         0 
dram[1]:         0         0         0         0         0         0         0         0         0         0         0         0         0         0         0         0 
dram[2]:         0         0         0         0         0         0         0         0         0         0         0         0         0         0         0         0 
dram[3]:         0         0         0         0         0         0         0         0         0         0         0         0         0         0         0         0 
dram[4]:         0         0         0         0         0         0         0         0         0         0         0         0         0         0         0         0 
dram[5]:         0         0         0         0         0         0         0         0         0         0         0         0         0         0         0         0 
dram[6]:         0         0         0         0         0         0         0         0         0         0         0         0         0         0         0         0 
dram[7]:         0         0         0         0         0         0         0         0         0         0         0         0         0         0         0         0 
dram[8]:         0         0         0         0         0         0         0         0         0         0         0         0         0         0         0         0 
dram[9]:         0         0         0         0         0         0         0         0         0         0         0         0         0         0         0         0 
dram[10]:         0         0         0         0         0         0         0         0         0         0         0         0         0         0         0         0 
total accesses: 0
min_bank_accesses = 0!
min_chip_accesses = 0!
number of total read accesses:
dram[0]:        54        53        48        48        49        49        64        64        57        57        76        76        76        75        64        64 
dram[1]:        53        53        48        48        49        49        64        64        57        56        76        76        75        75        64        64 
dram[2]:        52        52        48        48        49        49        64        64        56        56        76        76        75        75        64        64 
dram[3]:        52        52        48        48        49        49        64        64        56        56        76        76        75        75        64        64 
dram[4]:        52        52        48        48        49        49        64        64        56        56        76        76        75        75        65        65 
dram[5]:        52        52        48        48        49        49        64        64        56        56        78        78        75        75        65        65 
dram[6]:        52        52        48        48        50        50        64        64        56        56        78        78        75        75        65        65 
dram[7]:        52        52        48        48        50        50        64        64        56        56        78        78        75        75        64        64 
dram[8]:        52        52        48        48        50        50        64        64        56        56        78        78        75        75        64        64 
dram[9]:        52        52        48        48        50        50        64        64        56        56        78        78        75        75        64        64 
dram[10]:        52        52        48        48        50        50        64        64        56        56        78        78        75        75        64        64 
total reads: 10697
bank skew: 78/48 = 1.62
chip skew: 976/968 = 1.01
number of total write accesses:
dram[0]:         0         0         0         0         0         0         0         0         0         0       179       183       136       128         0         0 
dram[1]:         0         0         0         0         0         0         0         0         0         0       185       178       120       142         0         0 
dram[2]:         0         0         0         0         0         0         0         0         0         0       161       167       145       128         0         0 
dram[3]:         0         0         0         0         0         0         0         0         0         0       192       176       104       138         0         0 
dram[4]:         0         0         0         0         0         0         0         0         0         0       175       168       120       132         0         0 
dram[5]:         0         0         0         0         0         0         0         0         0         0       182       204       136       152         0         0 
dram[6]:         0         0         0         0         0         0         0         0         0         0       192       185       128       120         0         0 
dram[7]:         0         0         0         0         0         0         0         0         0         0       192       168       132       120         0         0 
dram[8]:         0         0         0         0         0         0         0         0         0         0       200       176       120       137         0         0 
dram[9]:         0         0         0         0         0         0         0         0         0         0       168       200       136       119         0         0 
dram[10]:         0         0         0         0         0         0         0         0         0         0       176       192       120       128         0         0 
total reads: 6840
min_bank_accesses = 0!
chip skew: 674/595 = 1.13
average mf latency per bank:
dram[0]:      10859     10952     13476     13582     10833     10664     11752     11770     18272     19519      5410      5309      4682      4790     13495     13569
dram[1]:      11011     11137     13675     13784     10850     10495     11698     11798     18342     17504      5209      5379      4980      4465     13492     13747
dram[2]:      10938     10789     13506     13598     10567     10703     11761     11759     17227     17079      5738      5703      4447      4812     13840     13718
dram[3]:      10772     10610     13513     13594     10594     11052     11840     11911     17606     17609      5154      5401      5369      4554     13490     13556
dram[4]:      11173     11405     13497     13596     10821     10705     11743     11790     17525     17343      5370      5579      4972      4661     13283     13384
dram[5]:      11156     10870     13493     13596     10626     10689     11771     11749     17364     17513      5388      5088      4549      4286     13334     13302
dram[6]:      10659     11094     13481     13823     11355     11171     11846     11864     17235     17679      5231      5316      4713      4927     13263     13429
dram[7]:      11322     11374     13731     13559     11456     11505     10840     10890     17839     17841      5165      5692      4635      4989     13685     13762
dram[8]:      11032     10920     13475     13556     11491     11555     10840     10899     17743     16717      5034      5492      5008      4611     13687     13749
dram[9]:      11164     11085     13469     13739     11486     11774     10859     10875     19611     20348      5575      4963      4559      5016     13698     13742
dram[10]:      11200     11024     13665     13575     11480     11534     10822     10921     20027     20312      5399      5077      4962      4810     13851     13995
maximum mf latency per bank:
dram[0]:      12696     12630     12172     12250     12242     12247      8564      8692     20947     20950     20920     21003     20518     20591     13544     13627
dram[1]:      12682     12715     12197     12229     12217     12232      8552      8673     20959     20969     20921     21005     20463     13529     13536     13625
dram[2]:      12625     12611     12176     12241     12188     12250      8609      8702     20961     20969     20929     21002     13423     13510     13525     13604
dram[3]:      12613     12599     12168     12254     12210     12234      8599      8670     20948     20961     20957     21004     13460     13522     13534     13606
dram[4]:      12577     12603     12184     12244     12203     12232      8600      8634     20949     20956     20946     21028     13480     13515     13547     13456
dram[5]:      12559     12582     12179     12255     12197     12231      8595      8641     20942     20929     20905     21032     13445     13475     13544     13612
dram[6]:      12599     12606     12183     12289     12209     12257      8580      8672     20912     20933     20929     21088     13420     13496     13572     20489
dram[7]:      12623     12573     12185     12240     12233     12257      8607      8640     20955     20959     20923     21080     13452     13490     20472     20513
dram[8]:      12642     12581     12169     12224     12224     12240      8583      8654     20933     20925     20851     20922     20488     20591     20548     20582
dram[9]:      12681     12640     12180     12237     12217     12243      8537      8624     20894     20968     20857     20937     20520     20627     20561     20608
dram[10]:      12662     12673     12182     12248     12229     12250      8587      8636     20946     20972     20866     20942     20519     20634     20562     20545
Memory Partition 0: 
Cache L2_bank_000:
MSHR contents

Cache L2_bank_001:
MSHR contents

In Dram Latency Queue (total = 0): 
DRAM[0]: 16 bks, busW=4 BL=8 CL=12, tRRD=2 tCCD=6, tRCD=12 tRAS=28 tRP=12 tRC=40
n_cmd=128911 n_nop=124239 n_act=83 n_pre=67 n_req=1600 n_rd=3896 n_write=626 bw_util=0.07016
n_activity=12552 dram_eff=0.7205
bk0: 216a 127163i bk1: 212a 126992i bk2: 192a 128258i bk3: 192a 127924i bk4: 196a 127793i bk5: 196a 127494i bk6: 256a 127611i bk7: 256a 127322i bk8: 228a 127180i bk9: 228a 126852i bk10: 304a 125919i bk11: 304a 125318i bk12: 304a 125959i bk13: 300a 125527i bk14: 256a 126719i bk15: 256a 126312i 
dram_util_bins: 0 0 0 0 0 0 0 0 0 0
dram_eff_bins: 0 0 0 0 0 0 0 0 0 0
mrqq: max=64 avg=1.60245
Memory Partition 1: 
Cache L2_bank_002:
MSHR contents

Cache L2_bank_003:
MSHR contents

In Dram Latency Queue (total = 0): 
DRAM[1]: 16 bks, busW=4 BL=8 CL=12, tRRD=2 tCCD=6, tRCD=12 tRAS=28 tRP=12 tRC=40
n_cmd=128911 n_nop=124242 n_act=88 n_pre=72 n_req=1596 n_rd=3884 n_write=625 bw_util=0.06996
n_activity=12614 dram_eff=0.7149
bk0: 212a 126957i bk1: 212a 126728i bk2: 192a 128214i bk3: 192a 127855i bk4: 196a 127794i bk5: 196a 127497i bk6: 256a 127727i bk7: 256a 127343i bk8: 228a 127252i bk9: 224a 126868i bk10: 304a 126044i bk11: 304a 125411i bk12: 300a 125784i bk13: 300a 125385i bk14: 256a 126746i bk15: 256a 126386i 
dram_util_bins: 0 0 0 0 0 0 0 0 0 0
dram_eff_bins: 0 0 0 0 0 0 0 0 0 0
mrqq: max=64 avg=1.60451
Memory Partition 2: 
Cache L2_bank_004:
MSHR contents

Cache L2_bank_005:
MSHR contents

In Dram Latency Queue (total = 0): 
DRAM[2]: 16 bks, busW=4 BL=8 CL=12, tRRD=2 tCCD=6, tRCD=12 tRAS=28 tRP=12 tRC=40
n_cmd=128911 n_nop=124286 n_act=84 n_pre=68 n_req=1569 n_rd=3872 n_write=601 bw_util=0.0694
n_activity=12367 dram_eff=0.7234
bk0: 208a 127079i bk1: 208a 127038i bk2: 192a 128237i bk3: 192a 127852i bk4: 196a 127826i bk5: 196a 127502i bk6: 256a 127709i bk7: 256a 127207i bk8: 224a 127255i bk9: 224a 126858i bk10: 304a 126045i bk11: 304a 125421i bk12: 300a 125625i bk13: 300a 125364i bk14: 256a 126721i bk15: 256a 126392i 
dram_util_bins: 0 0 0 0 0 0 0 0 0 0
dram_eff_bins: 0 0 0 0 0 0 0 0 0 0
mrqq: max=64 avg=1.55752
Memory Partition 3: 
Cache L2_bank_006:
MSHR contents

Cache L2_bank_007:
MSHR contents

In Dram Latency Queue (total = 0): 
DRAM[3]: 16 bks, busW=4 BL=8 CL=12, tRRD=2 tCCD=6, tRCD=12 tRAS=28 tRP=12 tRC=40
n_cmd=128911 n_nop=124273 n_act=86 n_pre=70 n_req=1578 n_rd=3872 n_write=610 bw_util=0.06954
n_activity=12525 dram_eff=0.7157
bk0: 208a 127081i bk1: 208a 126916i bk2: 192a 128226i bk3: 192a 127835i bk4: 196a 127823i bk5: 196a 127516i bk6: 256a 127678i bk7: 256a 127284i bk8: 224a 127141i bk9: 224a 126794i bk10: 304a 125985i bk11: 304a 125456i bk12: 300a 125850i bk13: 300a 125445i bk14: 256a 126635i bk15: 256a 126297i 
dram_util_bins: 0 0 0 0 0 0 0 0 0 0
dram_eff_bins: 0 0 0 0 0 0 0 0 0 0
mrqq: max=64 avg=1.5382
Memory Partition 4: 
Cache L2_bank_008:
MSHR contents

Cache L2_bank_009:
MSHR contents

In Dram Latency Queue (total = 0): 
DRAM[4]: 16 bks, busW=4 BL=8 CL=12, tRRD=2 tCCD=6, tRCD=12 tRAS=28 tRP=12 tRC=40
n_cmd=128911 n_nop=124280 n_act=86 n_pre=70 n_req=1565 n_rd=3880 n_write=595 bw_util=0.06943
n_activity=12615 dram_eff=0.7095
bk0: 208a 127072i bk1: 208a 126918i bk2: 192a 128215i bk3: 192a 127873i bk4: 196a 127798i bk5: 196a 127474i bk6: 256a 127733i bk7: 256a 127308i bk8: 224a 127153i bk9: 224a 126874i bk10: 304a 125997i bk11: 304a 125501i bk12: 300a 125912i bk13: 300a 125539i bk14: 260a 126643i bk15: 260a 126318i 
dram_util_bins: 0 0 0 0 0 0 0 0 0 0
dram_eff_bins: 0 0 0 0 0 0 0 0 0 0
mrqq: max=64 avg=1.53732
Memory Partition 5: 
Cache L2_bank_010:
MSHR contents

Cache L2_bank_011:
MSHR contents

In Dram Latency Queue (total = 0): 
DRAM[5]: 16 bks, busW=4 BL=8 CL=12, tRRD=2 tCCD=6, tRCD=12 tRAS=28 tRP=12 tRC=40
n_cmd=128911 n_nop=124189 n_act=84 n_pre=68 n_req=1648 n_rd=3896 n_write=674 bw_util=0.0709
n_activity=12721 dram_eff=0.7185
bk0: 208a 127160i bk1: 208a 126818i bk2: 192a 128186i bk3: 192a 127855i bk4: 196a 127802i bk5: 196a 127520i bk6: 256a 127645i bk7: 256a 127264i bk8: 224a 127208i bk9: 224a 126863i bk10: 312a 125997i bk11: 312a 125331i bk12: 300a 125926i bk13: 300a 125526i bk14: 260a 126685i bk15: 260a 126288i 
dram_util_bins: 0 0 0 0 0 0 0 0 0 0
dram_eff_bins: 0 0 0 0 0 0 0 0 0 0
mrqq: max=64 avg=1.61715
Memory Partition 6: 
Cache L2_bank_012:
MSHR contents

Cache L2_bank_013:
MSHR contents

In Dram Latency Queue (total = 0): 
DRAM[6]: 16 bks, busW=4 BL=8 CL=12, tRRD=2 tCCD=6, tRCD=12 tRAS=28 tRP=12 tRC=40
n_cmd=128911 n_nop=124226 n_act=86 n_pre=70 n_req=1601 n_rd=3904 n_write=625 bw_util=0.07027
n_activity=12837 dram_eff=0.7056
bk0: 208a 127187i bk1: 208a 126891i bk2: 192a 128199i bk3: 192a 127884i bk4: 200a 127768i bk5: 200a 127504i bk6: 256a 127588i bk7: 256a 127220i bk8: 224a 127160i bk9: 224a 126823i bk10: 312a 125885i bk11: 312a 125248i bk12: 300a 126084i bk13: 300a 125723i bk14: 260a 126628i bk15: 260a 126253i 
dram_util_bins: 0 0 0 0 0 0 0 0 0 0
dram_eff_bins: 0 0 0 0 0 0 0 0 0 0
mrqq: max=64 avg=1.60281
Memory Partition 7: 
Cache L2_bank_014:
MSHR contents

Cache L2_bank_015:
MSHR contents

In Dram Latency Queue (total = 0): 
DRAM[7]: 16 bks, busW=4 BL=8 CL=12, tRRD=2 tCCD=6, tRCD=12 tRAS=28 tRP=12 tRC=40
n_cmd=128911 n_nop=124251 n_act=84 n_pre=68 n_req=1586 n_rd=3896 n_write=612 bw_util=0.06994
n_activity=12533 dram_eff=0.7194
bk0: 208a 127209i bk1: 208a 127078i bk2: 192a 128233i bk3: 192a 127919i bk4: 200a 127748i bk5: 200a 127497i bk6: 256a 127728i bk7: 256a 127353i bk8: 224a 127141i bk9: 224a 126789i bk10: 312a 125926i bk11: 312a 125363i bk12: 300a 126140i bk13: 300a 125696i bk14: 256a 126681i bk15: 256a 126361i 
dram_util_bins: 0 0 0 0 0 0 0 0 0 0
dram_eff_bins: 0 0 0 0 0 0 0 0 0 0
mrqq: max=64 avg=1.58947
Memory Partition 8: 
Cache L2_bank_016:
MSHR contents

Cache L2_bank_017:
MSHR contents

In Dram Latency Queue (total = 0): 
DRAM[8]: 16 bks, busW=4 BL=8 CL=12, tRRD=2 tCCD=6, tRCD=12 tRAS=28 tRP=12 tRC=40
n_cmd=128911 n_nop=124230 n_act=84 n_pre=68 n_req=1607 n_rd=3896 n_write=633 bw_util=0.07027
n_activity=12721 dram_eff=0.7121
bk0: 208a 127124i bk1: 208a 126858i bk2: 192a 128232i bk3: 192a 127865i bk4: 200a 127684i bk5: 200a 127396i bk6: 256a 127677i bk7: 256a 127309i bk8: 224a 127143i bk9: 224a 126842i bk10: 312a 125794i bk11: 312a 125288i bk12: 300a 126108i bk13: 300a 125745i bk14: 256a 126682i bk15: 256a 126349i 
dram_util_bins: 0 0 0 0 0 0 0 0 0 0
dram_eff_bins: 0 0 0 0 0 0 0 0 0 0
mrqq: max=64 avg=1.5903
Memory Partition 9: 
Cache L2_bank_018:
MSHR contents

Cache L2_bank_019:
MSHR contents

In Dram Latency Queue (total = 0): 
DRAM[9]: 16 bks, busW=4 BL=8 CL=12, tRRD=2 tCCD=6, tRCD=12 tRAS=28 tRP=12 tRC=40
n_cmd=128911 n_nop=124244 n_act=82 n_pre=66 n_req=1597 n_rd=3896 n_write=623 bw_util=0.07011
n_activity=12504 dram_eff=0.7228
bk0: 208a 127182i bk1: 208a 126905i bk2: 192a 128210i bk3: 192a 127859i bk4: 200a 127747i bk5: 200a 127416i bk6: 256a 127704i bk7: 256a 127292i bk8: 224a 127151i bk9: 224a 126857i bk10: 312a 125966i bk11: 312a 125205i bk12: 300a 126136i bk13: 300a 125674i bk14: 256a 126673i bk15: 256a 126332i 
dram_util_bins: 0 0 0 0 0 0 0 0 0 0
dram_eff_bins: 0 0 0 0 0 0 0 0 0 0
mrqq: max=64 avg=1.6169
Memory Partition 10: 
Cache L2_bank_020:
MSHR contents

Cache L2_bank_021:
MSHR contents

In Dram Latency Queue (total = 0): 
DRAM[10]: 16 bks, busW=4 BL=8 CL=12, tRRD=2 tCCD=6, tRCD=12 tRAS=28 tRP=12 tRC=40
n_cmd=128911 n_nop=124251 n_act=82 n_pre=66 n_req=1590 n_rd=3896 n_write=616 bw_util=0.07
n_activity=12667 dram_eff=0.7124
bk0: 208a 127228i bk1: 208a 126974i bk2: 192a 128189i bk3: 192a 127854i bk4: 200a 127701i bk5: 200a 127384i bk6: 256a 127643i bk7: 256a 127231i bk8: 224a 127090i bk9: 224a 126802i bk10: 312a 125907i bk11: 312a 125319i bk12: 300a 126153i bk13: 300a 125685i bk14: 256a 126646i bk15: 256a 126265i 
dram_util_bins: 0 0 0 0 0 0 0 0 0 0
dram_eff_bins: 0 0 0 0 0 0 0 0 0 0
mrqq: max=64 avg=1.595

========= L2 cache stats =========
L2_cache_bank[0]: Access = 2516, Miss = 488, Miss_rate = 0.194, Pending_hits = 1042, Reservation_fails = 0
L2_cache_bank[1]: Access = 2480, Miss = 486, Miss_rate = 0.196, Pending_hits = 977, Reservation_fails = 0
L2_cache_bank[2]: Access = 2470, Miss = 486, Miss_rate = 0.197, Pending_hits = 997, Reservation_fails = 0
L2_cache_bank[3]: Access = 2461, Miss = 485, Miss_rate = 0.197, Pending_hits = 1011, Reservation_fails = 0
L2_cache_bank[4]: Access = 2459, Miss = 484, Miss_rate = 0.197, Pending_hits = 1002, Reservation_fails = 0
L2_cache_bank[5]: Access = 2459, Miss = 484, Miss_rate = 0.197, Pending_hits = 1005, Reservation_fails = 0
L2_cache_bank[6]: Access = 2459, Miss = 484, Miss_rate = 0.197, Pending_hits = 1004, Reservation_fails = 0
L2_cache_bank[7]: Access = 2457, Miss = 484, Miss_rate = 0.197, Pending_hits = 1018, Reservation_fails = 0
L2_cache_bank[8]: Access = 2487, Miss = 485, Miss_rate = 0.195, Pending_hits = 1032, Reservation_fails = 0
L2_cache_bank[9]: Access = 2487, Miss = 485, Miss_rate = 0.195, Pending_hits = 1032, Reservation_fails = 0
L2_cache_bank[10]: Access = 2505, Miss = 487, Miss_rate = 0.194, Pending_hits = 1031, Reservation_fails = 0
L2_cache_bank[11]: Access = 2507, Miss = 487, Miss_rate = 0.194, Pending_hits = 1089, Reservation_fails = 0
L2_cache_bank[12]: Access = 2521, Miss = 488, Miss_rate = 0.194, Pending_hits = 1032, Reservation_fails = 0
L2_cache_bank[13]: Access = 2524, Miss = 488, Miss_rate = 0.193, Pending_hits = 1035, Reservation_fails = 0
L2_cache_bank[14]: Access = 2496, Miss = 487, Miss_rate = 0.195, Pending_hits = 1012, Reservation_fails = 0
L2_cache_bank[15]: Access = 2496, Miss = 487, Miss_rate = 0.195, Pending_hits = 1005, Reservation_fails = 1
L2_cache_bank[16]: Access = 2496, Miss = 487, Miss_rate = 0.195, Pending_hits = 1033, Reservation_fails = 0
L2_cache_bank[17]: Access = 2494, Miss = 487, Miss_rate = 0.195, Pending_hits = 1027, Reservation_fails = 0
L2_cache_bank[18]: Access = 2496, Miss = 487, Miss_rate = 0.195, Pending_hits = 996, Reservation_fails = 0
L2_cache_bank[19]: Access = 2496, Miss = 487, Miss_rate = 0.195, Pending_hits = 1016, Reservation_fails = 0
L2_cache_bank[20]: Access = 2496, Miss = 487, Miss_rate = 0.195, Pending_hits = 997, Reservation_fails = 0
L2_cache_bank[21]: Access = 2496, Miss = 487, Miss_rate = 0.195, Pending_hits = 1046, Reservation_fails = 0
L2_total_cache_accesses = 54758
L2_total_cache_misses = 10697
L2_total_cache_miss_rate = 0.1954
L2_total_cache_pending_hits = 22439
L2_total_cache_reservation_fails = 1
L2_total_cache_breakdown:
	L2_cache_stats_breakdown[GLOBAL_ACC_R][HIT] = 1438
	L2_cache_stats_breakdown[GLOBAL_ACC_R][HIT_RESERVED] = 15997
	L2_cache_stats_breakdown[GLOBAL_ACC_R][MISS] = 10127
	L2_cache_stats_breakdown[GLOBAL_ACC_R][RESERVATION_FAIL] = 0
	L2_cache_stats_breakdown[LOCAL_ACC_R][HIT] = 0
	L2_cache_stats_breakdown[LOCAL_ACC_R][HIT_RESERVED] = 0
	L2_cache_stats_breakdown[LOCAL_ACC_R][MISS] = 0
	L2_cache_stats_breakdown[LOCAL_ACC_R][RESERVATION_FAIL] = 0
	L2_cache_stats_breakdown[CONST_ACC_R][HIT] = 0
	L2_cache_stats_breakdown[CONST_ACC_R][HIT_RESERVED] = 27
	L2_cache_stats_breakdown[CONST_ACC_R][MISS] = 1
	L2_cache_stats_breakdown[CONST_ACC_R][RESERVATION_FAIL] = 0
	L2_cache_stats_breakdown[TEXTURE_ACC_R][HIT] = 0
	L2_cache_stats_breakdown[TEXTURE_ACC_R][HIT_RESERVED] = 0
	L2_cache_stats_breakdown[TEXTURE_ACC_R][MISS] = 0
	L2_cache_stats_breakdown[TEXTURE_ACC_R][RESERVATION_FAIL] = 0
	L2_cache_stats_breakdown[GLOBAL_ACC_W][HIT] = 20160
	L2_cache_stats_breakdown[GLOBAL_ACC_W][HIT_RESERVED] = 6277
	L2_cache_stats_breakdown[GLOBAL_ACC_W][MISS] = 563
	L2_cache_stats_breakdown[GLOBAL_ACC_W][RESERVATION_FAIL] = 1
	L2_cache_stats_breakdown[LOCAL_ACC_W][HIT] = 0
	L2_cache_stats_breakdown[LOCAL_ACC_W][HIT_RESERVED] = 0
	L2_cache_stats_breakdown[LOCAL_ACC_W][MISS] = 0
	L2_cache_stats_breakdown[LOCAL_ACC_W][RESERVATION_FAIL] = 0
	L2_cache_stats_breakdown[L1_WRBK_ACC][HIT] = 0
	L2_cache_stats_breakdown[L1_WRBK_ACC][HIT_RESERVED] = 0
	L2_cache_stats_breakdown[L1_WRBK_ACC][MISS] = 0
	L2_cache_stats_breakdown[L1_WRBK_ACC][RESERVATION_FAIL] = 0
	L2_cache_stats_breakdown[L2_WRBK_ACC][HIT] = 0
	L2_cache_stats_breakdown[L2_WRBK_ACC][HIT_RESERVED] = 0
	L2_cache_stats_breakdown[L2_WRBK_ACC][MISS] = 0
	L2_cache_stats_breakdown[L2_WRBK_ACC][RESERVATION_FAIL] = 0
	L2_cache_stats_breakdown[INST_ACC_R][HIT] = 24
	L2_cache_stats_breakdown[INST_ACC_R][HIT_RESERVED] = 138
	L2_cache_stats_breakdown[INST_ACC_R][MISS] = 6
	L2_cache_stats_breakdown[INST_ACC_R][RESERVATION_FAIL] = 0
	L2_cache_stats_breakdown[L1_WR_ALLOC_R][HIT] = 0
	L2_cache_stats_breakdown[L1_WR_ALLOC_R][HIT_RESERVED] = 0
	L2_cache_stats_breakdown[L1_WR_ALLOC_R][MISS] = 0
	L2_cache_stats_breakdown[L1_WR_ALLOC_R][RESERVATION_FAIL] = 0
	L2_cache_stats_breakdown[L2_WR_ALLOC_R][HIT] = 0
	L2_cache_stats_breakdown[L2_WR_ALLOC_R][HIT_RESERVED] = 0
	L2_cache_stats_breakdown[L2_WR_ALLOC_R][MISS] = 0
	L2_cache_stats_breakdown[L2_WR_ALLOC_R][RESERVATION_FAIL] = 0
	L2_cache_stats_breakdown[GLOBAL_ACC_R][TOTAL_ACCESS] = 27562
	L2_cache_stats_breakdown[CONST_ACC_R][TOTAL_ACCESS] = 28
	L2_cache_stats_breakdown[GLOBAL_ACC_W][TOTAL_ACCESS] = 27000
	L2_cache_stats_breakdown[INST_ACC_R][TOTAL_ACCESS] = 168
L2_cache_data_port_util = 0.035
L2_cache_fill_port_util = 0.028

icnt_total_pkts_mem_to_simt=117361
icnt_total_pkts_simt_to_mem=113257
LD_mem_lat_dist  0 0 0 0 0 0 0 0 0 0 0 0 0 0 0 0 0 0 0 0 0 0 0 0 0 0 0
ST_mem_lat_dist  0 0 0 0 0 0 0 0 0 0 0 0 0 0 0 0 0 0 0 0 0 0 0 0 0 0 0
----------------------------Interconnect-DETAILS--------------------------------
Class 0:
Packet latency average = 20.0926
	minimum = 6
	maximum = 186
Network latency average = 14.53
	minimum = 6
	maximum = 146
Slowest packet = 100864
Flit latency average = 13.5285
	minimum = 6
	maximum = 142
Slowest flit = 209928
Fragmentation average = 0
	minimum = 0
	maximum = 0
Injected packet rate average = 0.0157748
	minimum = 0.0136119 (at node 17)
	maximum = 0.018178 (at node 41)
Accepted packet rate average = 0.0157748
	minimum = 0.0136119 (at node 17)
	maximum = 0.018178 (at node 41)
Injected flit rate average = 0.0332185
	minimum = 0.0280953 (at node 17)
	maximum = 0.0393161 (at node 41)
Accepted flit rate average= 0.0332185
	minimum = 0.0292476 (at node 17)
	maximum = 0.0373859 (at node 41)
Injected packet length average = 2.10579
Accepted packet length average = 2.10579
Total in-flight flits = 0 (0 measured)
====== Overall Traffic Statistics ======
====== Traffic class 0 ======
Packet latency average = 20.0926 (1 samples)
	minimum = 6 (1 samples)
	maximum = 186 (1 samples)
Network latency average = 14.53 (1 samples)
	minimum = 6 (1 samples)
	maximum = 146 (1 samples)
Flit latency average = 13.5285 (1 samples)
	minimum = 6 (1 samples)
	maximum = 142 (1 samples)
Fragmentation average = 0 (1 samples)
	minimum = 0 (1 samples)
	maximum = 0 (1 samples)
Injected packet rate average = 0.0157748 (1 samples)
	minimum = 0.0136119 (1 samples)
	maximum = 0.018178 (1 samples)
Accepted packet rate average = 0.0157748 (1 samples)
	minimum = 0.0136119 (1 samples)
	maximum = 0.018178 (1 samples)
Injected flit rate average = 0.0332185 (1 samples)
	minimum = 0.0280953 (1 samples)
	maximum = 0.0393161 (1 samples)
Accepted flit rate average = 0.0332185 (1 samples)
	minimum = 0.0292476 (1 samples)
	maximum = 0.0373859 (1 samples)
Injected packet size average = 2.10579 (1 samples)
Accepted packet size average = 2.10579 (1 samples)
Hops average = 1 (1 samples)
----------------------------END-of-Interconnect-DETAILS-------------------------


gpgpu_simulation_time = 0 days, 0 hrs, 4 min, 28 sec (268 sec)
gpgpu_simulation_rate = 115253 (inst/sec)
gpgpu_simulation_rate = 1087 (cycle/sec)
GPGPU-Sim: synchronize waiting for inactive GPU simulation
GPGPU-Sim API: Stream Manager State
GPGPU-Sim: detected inactive GPU simulation thread

GPGPU-Sim PTX: cudaLaunch for 0x0x402d5b (mode=performance simulation) on stream 0
GPGPU-Sim PTX: pushing kernel '_Z24bpnn_adjust_weights_cudaPfiS_iS_S_' to stream 0, gridDim= (1,1125,1) blockDim = (16,16,1) 
GPGPU-Sim uArch: Shader 6 bind to kernel 2 '_Z24bpnn_adjust_weights_cudaPfiS_iS_S_'
GPGPU-Sim uArch: CTA/core = 8, limited by: threads
GPGPU-Sim uArch: Shader 7 bind to kernel 2 '_Z24bpnn_adjust_weights_cudaPfiS_iS_S_'
GPGPU-Sim uArch: Shader 8 bind to kernel 2 '_Z24bpnn_adjust_weights_cudaPfiS_iS_S_'
GPGPU-Sim uArch: Shader 9 bind to kernel 2 '_Z24bpnn_adjust_weights_cudaPfiS_iS_S_'
GPGPU-Sim uArch: Shader 10 bind to kernel 2 '_Z24bpnn_adjust_weights_cudaPfiS_iS_S_'
GPGPU-Sim uArch: Shader 11 bind to kernel 2 '_Z24bpnn_adjust_weights_cudaPfiS_iS_S_'
GPGPU-Sim uArch: Shader 12 bind to kernel 2 '_Z24bpnn_adjust_weights_cudaPfiS_iS_S_'
GPGPU-Sim uArch: Shader 13 bind to kernel 2 '_Z24bpnn_adjust_weights_cudaPfiS_iS_S_'
GPGPU-Sim uArch: Shader 14 bind to kernel 2 '_Z24bpnn_adjust_weights_cudaPfiS_iS_S_'
GPGPU-Sim uArch: Shader 15 bind to kernel 2 '_Z24bpnn_adjust_weights_cudaPfiS_iS_S_'
GPGPU-Sim uArch: Shader 16 bind to kernel 2 '_Z24bpnn_adjust_weights_cudaPfiS_iS_S_'
GPGPU-Sim uArch: Shader 17 bind to kernel 2 '_Z24bpnn_adjust_weights_cudaPfiS_iS_S_'
GPGPU-Sim uArch: Shader 18 bind to kernel 2 '_Z24bpnn_adjust_weights_cudaPfiS_iS_S_'
GPGPU-Sim uArch: Shader 19 bind to kernel 2 '_Z24bpnn_adjust_weights_cudaPfiS_iS_S_'
GPGPU-Sim uArch: Shader 20 bind to kernel 2 '_Z24bpnn_adjust_weights_cudaPfiS_iS_S_'
GPGPU-Sim uArch: Shader 21 bind to kernel 2 '_Z24bpnn_adjust_weights_cudaPfiS_iS_S_'
GPGPU-Sim uArch: Shader 22 bind to kernel 2 '_Z24bpnn_adjust_weights_cudaPfiS_iS_S_'
GPGPU-Sim uArch: Shader 23 bind to kernel 2 '_Z24bpnn_adjust_weights_cudaPfiS_iS_S_'
GPGPU-Sim uArch: Shader 24 bind to kernel 2 '_Z24bpnn_adjust_weights_cudaPfiS_iS_S_'
GPGPU-Sim uArch: Shader 25 bind to kernel 2 '_Z24bpnn_adjust_weights_cudaPfiS_iS_S_'
GPGPU-Sim uArch: Shader 26 bind to kernel 2 '_Z24bpnn_adjust_weights_cudaPfiS_iS_S_'
GPGPU-Sim uArch: Shader 27 bind to kernel 2 '_Z24bpnn_adjust_weights_cudaPfiS_iS_S_'
GPGPU-Sim uArch: Shader 0 bind to kernel 2 '_Z24bpnn_adjust_weights_cudaPfiS_iS_S_'
GPGPU-Sim uArch: Shader 1 bind to kernel 2 '_Z24bpnn_adjust_weights_cudaPfiS_iS_S_'
GPGPU-Sim uArch: Shader 2 bind to kernel 2 '_Z24bpnn_adjust_weights_cudaPfiS_iS_S_'
GPGPU-Sim uArch: Shader 3 bind to kernel 2 '_Z24bpnn_adjust_weights_cudaPfiS_iS_S_'
GPGPU-Sim uArch: Shader 4 bind to kernel 2 '_Z24bpnn_adjust_weights_cudaPfiS_iS_S_'
GPGPU-Sim uArch: Shader 5 bind to kernel 2 '_Z24bpnn_adjust_weights_cudaPfiS_iS_S_'
Destroy streams for kernel 2: size 0
kernel_name = _Z24bpnn_adjust_weights_cudaPfiS_iS_S_ 
kernel_launch_uid = 2 
gpu_sim_cycle = 1539593
gpu_sim_insn = 15552352
gpu_ipc =      10.1016
gpu_tot_sim_cycle = 2070181
gpu_tot_sim_insn = 46440352
gpu_tot_ipc =      22.4330
gpu_tot_issued_cta = 2250
max_total_param_size = 0
gpu_stall_dramfull = 22656
gpu_stall_icnt2sh    = 78974
partiton_reqs_in_parallel = 33849226
partiton_reqs_in_parallel_total    = 1526514
partiton_level_parallism =      21.9858
partiton_level_parallism_total  =      17.0882
partiton_reqs_in_parallel_util = 33849226
partiton_reqs_in_parallel_util_total    = 1526514
gpu_sim_cycle_parition_util = 1539593
gpu_tot_sim_cycle_parition_util    = 69425
partiton_level_parallism_util =      21.9858
partiton_level_parallism_util_total  =      21.9859
partiton_replys_in_parallel = 127244
partiton_replys_in_parallel_total    = 54758
L2_BW  =       7.8337 GB/Sec
L2_BW_total  =       8.3330 GB/Sec
gpu_total_sim_rate=9177

========= Core cache stats =========
L1I_cache:
	L1I_total_cache_accesses = 894386
	L1I_total_cache_misses = 6342
	L1I_total_cache_miss_rate = 0.0071
	L1I_total_cache_pending_hits = 0
	L1I_total_cache_reservation_fails = 51432
L1D_cache:
	L1D_cache_core[0]: Access = 0, Miss = 0, Miss_rate = -nan, Pending_hits = 0, Reservation_fails = 0
	L1D_cache_core[1]: Access = 0, Miss = 0, Miss_rate = -nan, Pending_hits = 0, Reservation_fails = 0
	L1D_cache_core[2]: Access = 0, Miss = 0, Miss_rate = -nan, Pending_hits = 0, Reservation_fails = 0
	L1D_cache_core[3]: Access = 0, Miss = 0, Miss_rate = -nan, Pending_hits = 0, Reservation_fails = 0
	L1D_cache_core[4]: Access = 0, Miss = 0, Miss_rate = -nan, Pending_hits = 0, Reservation_fails = 0
	L1D_cache_core[5]: Access = 0, Miss = 0, Miss_rate = -nan, Pending_hits = 0, Reservation_fails = 0
	L1D_cache_core[6]: Access = 0, Miss = 0, Miss_rate = -nan, Pending_hits = 0, Reservation_fails = 0
	L1D_cache_core[7]: Access = 0, Miss = 0, Miss_rate = -nan, Pending_hits = 0, Reservation_fails = 0
	L1D_cache_core[8]: Access = 0, Miss = 0, Miss_rate = -nan, Pending_hits = 0, Reservation_fails = 0
	L1D_cache_core[9]: Access = 0, Miss = 0, Miss_rate = -nan, Pending_hits = 0, Reservation_fails = 0
	L1D_cache_core[10]: Access = 0, Miss = 0, Miss_rate = -nan, Pending_hits = 0, Reservation_fails = 0
	L1D_cache_core[11]: Access = 0, Miss = 0, Miss_rate = -nan, Pending_hits = 0, Reservation_fails = 0
	L1D_cache_core[12]: Access = 0, Miss = 0, Miss_rate = -nan, Pending_hits = 0, Reservation_fails = 0
	L1D_cache_core[13]: Access = 0, Miss = 0, Miss_rate = -nan, Pending_hits = 0, Reservation_fails = 0
	L1D_cache_core[14]: Access = 0, Miss = 0, Miss_rate = -nan, Pending_hits = 0, Reservation_fails = 0
	L1D_cache_core[15]: Access = 0, Miss = 0, Miss_rate = -nan, Pending_hits = 0, Reservation_fails = 0
	L1D_cache_core[16]: Access = 0, Miss = 0, Miss_rate = -nan, Pending_hits = 0, Reservation_fails = 0
	L1D_cache_core[17]: Access = 0, Miss = 0, Miss_rate = -nan, Pending_hits = 0, Reservation_fails = 0
	L1D_cache_core[18]: Access = 0, Miss = 0, Miss_rate = -nan, Pending_hits = 0, Reservation_fails = 0
	L1D_cache_core[19]: Access = 0, Miss = 0, Miss_rate = -nan, Pending_hits = 0, Reservation_fails = 0
	L1D_cache_core[20]: Access = 0, Miss = 0, Miss_rate = -nan, Pending_hits = 0, Reservation_fails = 0
	L1D_cache_core[21]: Access = 0, Miss = 0, Miss_rate = -nan, Pending_hits = 0, Reservation_fails = 0
	L1D_cache_core[22]: Access = 0, Miss = 0, Miss_rate = -nan, Pending_hits = 0, Reservation_fails = 0
	L1D_cache_core[23]: Access = 0, Miss = 0, Miss_rate = -nan, Pending_hits = 0, Reservation_fails = 0
	L1D_cache_core[24]: Access = 0, Miss = 0, Miss_rate = -nan, Pending_hits = 0, Reservation_fails = 0
	L1D_cache_core[25]: Access = 0, Miss = 0, Miss_rate = -nan, Pending_hits = 0, Reservation_fails = 0
	L1D_cache_core[26]: Access = 0, Miss = 0, Miss_rate = -nan, Pending_hits = 0, Reservation_fails = 0
	L1D_cache_core[27]: Access = 0, Miss = 0, Miss_rate = -nan, Pending_hits = 0, Reservation_fails = 0
	L1D_total_cache_accesses = 0
	L1D_total_cache_misses = 0
	L1D_total_cache_pending_hits = 0
	L1D_total_cache_reservation_fails = 0
	L1D_cache_data_port_util = 0.000
	L1D_cache_fill_port_util = 0.000
L1C_cache:
	L1C_total_cache_accesses = 81000
	L1C_total_cache_misses = 1792
	L1C_total_cache_miss_rate = 0.0221
	L1C_total_cache_pending_hits = 0
	L1C_total_cache_reservation_fails = 4886
L1T_cache:
	L1T_total_cache_accesses = 0
	L1T_total_cache_misses = 0
	L1T_total_cache_pending_hits = 0
	L1T_total_cache_reservation_fails = 0

Total_core_cache_stats:
	Total_core_cache_stats_breakdown[GLOBAL_ACC_R][HIT] = 0
	Total_core_cache_stats_breakdown[GLOBAL_ACC_R][HIT_RESERVED] = 0
	Total_core_cache_stats_breakdown[GLOBAL_ACC_R][MISS] = 0
	Total_core_cache_stats_breakdown[GLOBAL_ACC_R][RESERVATION_FAIL] = 0
	Total_core_cache_stats_breakdown[LOCAL_ACC_R][HIT] = 0
	Total_core_cache_stats_breakdown[LOCAL_ACC_R][HIT_RESERVED] = 0
	Total_core_cache_stats_breakdown[LOCAL_ACC_R][MISS] = 0
	Total_core_cache_stats_breakdown[LOCAL_ACC_R][RESERVATION_FAIL] = 0
	Total_core_cache_stats_breakdown[CONST_ACC_R][HIT] = 79208
	Total_core_cache_stats_breakdown[CONST_ACC_R][HIT_RESERVED] = 0
	Total_core_cache_stats_breakdown[CONST_ACC_R][MISS] = 1792
	Total_core_cache_stats_breakdown[CONST_ACC_R][RESERVATION_FAIL] = 4886
	Total_core_cache_stats_breakdown[TEXTURE_ACC_R][HIT] = 0
	Total_core_cache_stats_breakdown[TEXTURE_ACC_R][HIT_RESERVED] = 0
	Total_core_cache_stats_breakdown[TEXTURE_ACC_R][MISS] = 0
	Total_core_cache_stats_breakdown[TEXTURE_ACC_R][RESERVATION_FAIL] = 0
	Total_core_cache_stats_breakdown[GLOBAL_ACC_W][HIT] = 0
	Total_core_cache_stats_breakdown[GLOBAL_ACC_W][HIT_RESERVED] = 0
	Total_core_cache_stats_breakdown[GLOBAL_ACC_W][MISS] = 0
	Total_core_cache_stats_breakdown[GLOBAL_ACC_W][RESERVATION_FAIL] = 0
	Total_core_cache_stats_breakdown[LOCAL_ACC_W][HIT] = 0
	Total_core_cache_stats_breakdown[LOCAL_ACC_W][HIT_RESERVED] = 0
	Total_core_cache_stats_breakdown[LOCAL_ACC_W][MISS] = 0
	Total_core_cache_stats_breakdown[LOCAL_ACC_W][RESERVATION_FAIL] = 0
	Total_core_cache_stats_breakdown[L1_WRBK_ACC][HIT] = 0
	Total_core_cache_stats_breakdown[L1_WRBK_ACC][HIT_RESERVED] = 0
	Total_core_cache_stats_breakdown[L1_WRBK_ACC][MISS] = 0
	Total_core_cache_stats_breakdown[L1_WRBK_ACC][RESERVATION_FAIL] = 0
	Total_core_cache_stats_breakdown[L2_WRBK_ACC][HIT] = 0
	Total_core_cache_stats_breakdown[L2_WRBK_ACC][HIT_RESERVED] = 0
	Total_core_cache_stats_breakdown[L2_WRBK_ACC][MISS] = 0
	Total_core_cache_stats_breakdown[L2_WRBK_ACC][RESERVATION_FAIL] = 0
	Total_core_cache_stats_breakdown[INST_ACC_R][HIT] = 888044
	Total_core_cache_stats_breakdown[INST_ACC_R][HIT_RESERVED] = 0
	Total_core_cache_stats_breakdown[INST_ACC_R][MISS] = 6342
	Total_core_cache_stats_breakdown[INST_ACC_R][RESERVATION_FAIL] = 51432
	Total_core_cache_stats_breakdown[L1_WR_ALLOC_R][HIT] = 0
	Total_core_cache_stats_breakdown[L1_WR_ALLOC_R][HIT_RESERVED] = 0
	Total_core_cache_stats_breakdown[L1_WR_ALLOC_R][MISS] = 0
	Total_core_cache_stats_breakdown[L1_WR_ALLOC_R][RESERVATION_FAIL] = 0
	Total_core_cache_stats_breakdown[L2_WR_ALLOC_R][HIT] = 0
	Total_core_cache_stats_breakdown[L2_WR_ALLOC_R][HIT_RESERVED] = 0
	Total_core_cache_stats_breakdown[L2_WR_ALLOC_R][MISS] = 0
	Total_core_cache_stats_breakdown[L2_WR_ALLOC_R][RESERVATION_FAIL] = 0
	Total_core_cache_stats_breakdown[CONST_ACC_R][TOTAL_ACCESS] = 81000
	Total_core_cache_stats_breakdown[INST_ACC_R][TOTAL_ACCESS] = 894386
Shader 0 warp_id issue ditsribution:
warp_id:
0, 1, 2, 3, 4, 5, 6, 7, 8, 9, 10, 11, 12, 13, 14, 15, 16, 17, 18, 19, 20, 21, 22, 23, 24, 25, 26, 27, 28, 29, 30, 31, 32, 33, 34, 35, 36, 37, 38, 39, 40, 41, 42, 43, 44, 45, 46, 47, 48, 49, 50, 51, 52, 53, 54, 55, 56, 57, 58, 59, 60, 61, 62, 63, 
distro:
[...]
F:  2017380----T:  2017640 	 St: 80524000 Sz: 4096 	 Sm: 0 	 T: write_back(0.175557)
F:  2017620----T:  2017873 	 St: 807e8fc0 Sz: 64 	 Sm: 0 	 T: rdma(0.170831)
F:  2017640----T:  2017900 	 St: 80525000 Sz: 4096 	 Sm: 0 	 T: write_back(0.175557)
F:  2017873----T:  2018126 	 St: 807e8740 Sz: 64 	 Sm: 0 	 T: rdma(0.170831)
F:  2017900----T:  2018160 	 St: 80733000 Sz: 4096 	 Sm: 0 	 T: write_back(0.175557)
F:  2018126----T:  2018379 	 St: 807e6dc0 Sz: 64 	 Sm: 0 	 T: rdma(0.170831)
F:  2018160----T:  2018420 	 St: 80734000 Sz: 4096 	 Sm: 0 	 T: write_back(0.175557)
F:  2018379----T:  2018632 	 St: 807e4340 Sz: 64 	 Sm: 0 	 T: rdma(0.170831)
F:  2018420----T:  2018680 	 St: 80735000 Sz: 4096 	 Sm: 0 	 T: write_back(0.175557)
F:  2018632----T:  2018885 	 St: 807e7640 Sz: 64 	 Sm: 0 	 T: rdma(0.170831)
F:  2018885----T:  2019138 	 St: 807e2a00 Sz: 128 	 Sm: 0 	 T: rdma(0.170831)
F:  2019138----T:  2019391 	 St: 807e6a00 Sz: 32 	 Sm: 0 	 T: rdma(0.170831)
F:  2019391----T:  2019644 	 St: 807ea0c0 Sz: 64 	 Sm: 0 	 T: rdma(0.170831)
F:  2019644----T:  2019897 	 St: 807e8780 Sz: 128 	 Sm: 0 	 T: rdma(0.170831)
F:  2019897----T:  2020150 	 St: 807e6e00 Sz: 128 	 Sm: 0 	 T: rdma(0.170831)
F:  2020150----T:  2020403 	 St: 807e4380 Sz: 128 	 Sm: 0 	 T: rdma(0.170831)
F:  2020403----T:  2020656 	 St: 807e7680 Sz: 128 	 Sm: 0 	 T: rdma(0.170831)
F:  2020656----T:  2020909 	 St: 807e3f00 Sz: 128 	 Sm: 0 	 T: rdma(0.170831)
F:  2020909----T:  2021162 	 St: 807e4780 Sz: 128 	 Sm: 0 	 T: rdma(0.170831)
F:  2021162----T:  2021415 	 St: 807ea100 Sz: 128 	 Sm: 0 	 T: rdma(0.170831)
F:  2021415----T:  2021668 	 St: 807e6100 Sz: 128 	 Sm: 0 	 T: rdma(0.170831)
F:  2021668----T:  2021921 	 St: 807e3680 Sz: 128 	 Sm: 0 	 T: rdma(0.170831)
F:  2021921----T:  2022174 	 St: 807e3f80 Sz: 32 	 Sm: 0 	 T: rdma(0.170831)
F:  2022174----T:  2022427 	 St: 807e4800 Sz: 32 	 Sm: 0 	 T: rdma(0.170831)
F:  2022427----T:  2022680 	 St: 807e2580 Sz: 128 	 Sm: 0 	 T: rdma(0.170831)
F:  2022680----T:  2022933 	 St: 807e8840 Sz: 64 	 Sm: 0 	 T: rdma(0.170831)
F:  2022933----T:  2023186 	 St: 807e6180 Sz: 32 	 Sm: 0 	 T: rdma(0.170831)
F:  2023186----T:  2023439 	 St: 807ea500 Sz: 128 	 Sm: 0 	 T: rdma(0.170831)
F:  2023439----T:  2023692 	 St: 807e3700 Sz: 32 	 Sm: 0 	 T: rdma(0.170831)
F:  2023692----T:  2023945 	 St: 807e2600 Sz: 32 	 Sm: 0 	 T: rdma(0.170831)
F:  2023945----T:  2024198 	 St: 807e8880 Sz: 128 	 Sm: 0 	 T: rdma(0.170831)
F:  2024198----T:  2024451 	 St: 807ea580 Sz: 32 	 Sm: 0 	 T: rdma(0.170831)
F:  2024451----T:  2024704 	 St: 807e4bc0 Sz: 64 	 Sm: 0 	 T: rdma(0.170831)
F:  2024704----T:  2024957 	 St: 807e3240 Sz: 64 	 Sm: 0 	 T: rdma(0.170831)
F:  2024957----T:  2025210 	 St: 807e7740 Sz: 64 	 Sm: 0 	 T: rdma(0.170831)
F:  2025210----T:  2025463 	 St: 807e2ac0 Sz: 64 	 Sm: 0 	 T: rdma(0.170831)
F:  2025463----T:  2025716 	 St: 807e4000 Sz: 128 	 Sm: 0 	 T: rdma(0.170831)
F:  2025716----T:  2025969 	 St: 807ea1c0 Sz: 64 	 Sm: 0 	 T: rdma(0.170831)
F:  2025969----T:  2026222 	 St: 807e2680 Sz: 128 	 Sm: 0 	 T: rdma(0.170831)
F:  2026222----T:  2026475 	 St: 807e8960 Sz: 32 	 Sm: 0 	 T: rdma(0.170831)
F:  2026475----T:  2026728 	 St: 807e4c00 Sz: 128 	 Sm: 0 	 T: rdma(0.170831)
F:  2026728----T:  2026981 	 St: 807e3280 Sz: 128 	 Sm: 0 	 T: rdma(0.170831)
F:  2026981----T:  2027234 	 St: 807e7780 Sz: 128 	 Sm: 0 	 T: rdma(0.170831)
F:  2027234----T:  2027487 	 St: 807e2b00 Sz: 128 	 Sm: 0 	 T: rdma(0.170831)
F:  2027487----T:  2027740 	 St: 807e4080 Sz: 32 	 Sm: 0 	 T: rdma(0.170831)
F:  2027740----T:  2027993 	 St: 807ea200 Sz: 128 	 Sm: 0 	 T: rdma(0.170831)
F:  2027993----T:  2028246 	 St: 807e2700 Sz: 32 	 Sm: 0 	 T: rdma(0.170831)
F:  2028246----T:  2028499 	 St: 807e8980 Sz: 128 	 Sm: 0 	 T: rdma(0.170831)
F:  2028499----T:  2028752 	 St: 807e4cc0 Sz: 64 	 Sm: 0 	 T: rdma(0.170831)
F:  2028752----T:  2029005 	 St: 807e3780 Sz: 128 	 Sm: 0 	 T: rdma(0.170831)
F:  2029005----T:  2029258 	 St: 807e3340 Sz: 64 	 Sm: 0 	 T: rdma(0.170831)
F:  2029258----T:  2029511 	 St: 807e2a40 Sz: 64 	 Sm: 0 	 T: rdma(0.170831)
F:  2029511----T:  2029764 	 St: 807ea2e0 Sz: 32 	 Sm: 0 	 T: rdma(0.170831)
F:  2029764----T:  2030017 	 St: 807e87c0 Sz: 64 	 Sm: 0 	 T: rdma(0.170831)
F:  2030017----T:  2030270 	 St: 807ea600 Sz: 128 	 Sm: 0 	 T: rdma(0.170831)
F:  2030270----T:  2030523 	 St: 807e7000 Sz: 128 	 Sm: 0 	 T: rdma(0.170831)
F:  2030523----T:  2030776 	 St: 807e3800 Sz: 32 	 Sm: 0 	 T: rdma(0.170831)
F:  2030776----T:  2031029 	 St: 807e7860 Sz: 32 	 Sm: 0 	 T: rdma(0.170831)
F:  2031029----T:  2031282 	 St: 807ea300 Sz: 128 	 Sm: 0 	 T: rdma(0.170831)
F:  2031282----T:  2031535 	 St: 807e8800 Sz: 128 	 Sm: 0 	 T: rdma(0.170831)
F:  2031535----T:  2031788 	 St: 807e7880 Sz: 128 	 Sm: 0 	 T: rdma(0.170831)
F:  2031788----T:  2032041 	 St: 807e7960 Sz: 32 	 Sm: 0 	 T: rdma(0.170831)
F:  2032041----T:  2032294 	 St: 807e70e0 Sz: 32 	 Sm: 0 	 T: rdma(0.170831)
F:  2032294----T:  2032547 	 St: 805d29c0 Sz: 64 	 Sm: 0 	 T: rdma(0.170831)
F:  2032547----T:  2032800 	 St: 805d2a00 Sz: 128 	 Sm: 0 	 T: rdma(0.170831)
F:  2032800----T:  2033053 	 St: 805d6980 Sz: 128 	 Sm: 0 	 T: rdma(0.170831)
F:  2033053----T:  2033306 	 St: 805d6a00 Sz: 32 	 Sm: 0 	 T: rdma(0.170831)
F:  2033306----T:  2033559 	 St: 805d8740 Sz: 64 	 Sm: 0 	 T: rdma(0.170831)
F:  2033559----T:  2033812 	 St: 805d8780 Sz: 128 	 Sm: 0 	 T: rdma(0.170831)
F:  2033812----T:  2034065 	 St: 805d6dc0 Sz: 64 	 Sm: 0 	 T: rdma(0.170831)
F:  2034065----T:  2034318 	 St: 805d6e00 Sz: 128 	 Sm: 0 	 T: rdma(0.170831)
F:  2034318----T:  2034571 	 St: 805d4340 Sz: 64 	 Sm: 0 	 T: rdma(0.170831)
F:  2034571----T:  2034824 	 St: 805d4380 Sz: 128 	 Sm: 0 	 T: rdma(0.170831)
F:  2034824----T:  2035077 	 St: 805d7640 Sz: 64 	 Sm: 0 	 T: rdma(0.170831)
F:  2035077----T:  2035330 	 St: 805d7680 Sz: 128 	 Sm: 0 	 T: rdma(0.170831)
F:  2035330----T:  2035583 	 St: 805da0c0 Sz: 64 	 Sm: 0 	 T: rdma(0.170831)
F:  2035583----T:  2035836 	 St: 805da100 Sz: 128 	 Sm: 0 	 T: rdma(0.170831)
F:  2035836----T:  2036089 	 St: 805d3f00 Sz: 128 	 Sm: 0 	 T: rdma(0.170831)
F:  2036089----T:  2036342 	 St: 805d3f80 Sz: 32 	 Sm: 0 	 T: rdma(0.170831)
F:  2036342----T:  2036595 	 St: 805d4780 Sz: 128 	 Sm: 0 	 T: rdma(0.170831)
F:  2036595----T:  2036848 	 St: 805d4800 Sz: 32 	 Sm: 0 	 T: rdma(0.170831)
F:  2036848----T:  2037101 	 St: 805d6100 Sz: 128 	 Sm: 0 	 T: rdma(0.170831)
F:  2037101----T:  2037354 	 St: 805d6180 Sz: 32 	 Sm: 0 	 T: rdma(0.170831)
F:  2037354----T:  2037607 	 St: 805d3680 Sz: 128 	 Sm: 0 	 T: rdma(0.170831)
F:  2037607----T:  2037860 	 St: 805d3700 Sz: 32 	 Sm: 0 	 T: rdma(0.170831)
F:  2037860----T:  2038113 	 St: 805d2580 Sz: 128 	 Sm: 0 	 T: rdma(0.170831)
F:  2038113----T:  2038366 	 St: 805d2600 Sz: 32 	 Sm: 0 	 T: rdma(0.170831)
F:  2038366----T:  2038619 	 St: 805d8840 Sz: 64 	 Sm: 0 	 T: rdma(0.170831)
F:  2038619----T:  2038872 	 St: 805d8880 Sz: 128 	 Sm: 0 	 T: rdma(0.170831)
F:  2038872----T:  2039125 	 St: 805da500 Sz: 128 	 Sm: 0 	 T: rdma(0.170831)
F:  2039125----T:  2039378 	 St: 805da580 Sz: 32 	 Sm: 0 	 T: rdma(0.170831)
F:  2039378----T:  2039631 	 St: 805d4bc0 Sz: 64 	 Sm: 0 	 T: rdma(0.170831)
F:  2039631----T:  2039884 	 St: 805d4c00 Sz: 128 	 Sm: 0 	 T: rdma(0.170831)
F:  2039884----T:  2040137 	 St: 805d3240 Sz: 64 	 Sm: 0 	 T: rdma(0.170831)
F:  2040137----T:  2040390 	 St: 805d3280 Sz: 128 	 Sm: 0 	 T: rdma(0.170831)
F:  2040390----T:  2040643 	 St: 805d7740 Sz: 64 	 Sm: 0 	 T: rdma(0.170831)
F:  2040643----T:  2040896 	 St: 805d7780 Sz: 128 	 Sm: 0 	 T: rdma(0.170831)
F:  2040896----T:  2041149 	 St: 805d2ac0 Sz: 64 	 Sm: 0 	 T: rdma(0.170831)
F:  2041149----T:  2041402 	 St: 805d2b00 Sz: 128 	 Sm: 0 	 T: rdma(0.170831)
F:  2041402----T:  2041655 	 St: 805d4000 Sz: 128 	 Sm: 0 	 T: rdma(0.170831)
F:  2041655----T:  2041908 	 St: 805d4080 Sz: 32 	 Sm: 0 	 T: rdma(0.170831)
F:  2041908----T:  2042161 	 St: 805da1c0 Sz: 64 	 Sm: 0 	 T: rdma(0.170831)
F:  2042161----T:  2042414 	 St: 805da200 Sz: 128 	 Sm: 0 	 T: rdma(0.170831)
F:  2042414----T:  2042667 	 St: 805d2680 Sz: 128 	 Sm: 0 	 T: rdma(0.170831)
F:  2042667----T:  2042920 	 St: 805d2700 Sz: 32 	 Sm: 0 	 T: rdma(0.170831)
F:  2042920----T:  2043173 	 St: 805d8960 Sz: 32 	 Sm: 0 	 T: rdma(0.170831)
F:  2043173----T:  2043426 	 St: 805d8980 Sz: 128 	 Sm: 0 	 T: rdma(0.170831)
F:  2043426----T:  2043679 	 St: 805d3780 Sz: 128 	 Sm: 0 	 T: rdma(0.170831)
F:  2043679----T:  2043932 	 St: 805d3800 Sz: 32 	 Sm: 0 	 T: rdma(0.170831)
F:  2043932----T:  2044185 	 St: 805da2e0 Sz: 32 	 Sm: 0 	 T: rdma(0.170831)
F:  2044185----T:  2044438 	 St: 805da300 Sz: 128 	 Sm: 0 	 T: rdma(0.170831)
F:  2044438----T:  2044691 	 St: 805d87c0 Sz: 64 	 Sm: 0 	 T: rdma(0.170831)
F:  2044691----T:  2044944 	 St: 805d8800 Sz: 128 	 Sm: 0 	 T: rdma(0.170831)
F:  2044944----T:  2045197 	 St: 805d7860 Sz: 32 	 Sm: 0 	 T: rdma(0.170831)
F:  2045197----T:  2045450 	 St: 805d7880 Sz: 128 	 Sm: 0 	 T: rdma(0.170831)
F:  2045450----T:  2045710 	 St: 807e1000 Sz: 4096 	 Sm: 0 	 T: memcpy_h2d(0.175557)
F:  2045710----T:  2045970 	 St: 805a2000 Sz: 4096 	 Sm: 0 	 T: memcpy_h2d(0.175557)
F:  2045970----T:  2046230 	 St: 805ab000 Sz: 4096 	 Sm: 0 	 T: memcpy_h2d(0.175557)
F:  2046115----T:  2046375 	 St: 80526000 Sz: 4096 	 Sm: 0 	 T: write_back(0.175557)
F:  2046230----T:  2046483 	 St: 805d1780 Sz: 128 	 Sm: 0 	 T: rdma(0.170831)
F:  2046483----T:  2046743 	 St: 805ac000 Sz: 4096 	 Sm: 0 	 T: memcpy_h2d(0.175557)
F:  2046743----T:  2047003 	 St: 805ae000 Sz: 4096 	 Sm: 0 	 T: memcpy_h2d(0.175557)
F:  2047003----T:  2047263 	 St: 805aa000 Sz: 4096 	 Sm: 0 	 T: memcpy_h2d(0.175557)
F:  2047263----T:  2047523 	 St: 805a9000 Sz: 4096 	 Sm: 0 	 T: memcpy_h2d(0.175557)
F:  2047523----T:  2047783 	 St: 805ad000 Sz: 4096 	 Sm: 0 	 T: memcpy_h2d(0.175557)
F:  2047783----T:  2048043 	 St: 807e5000 Sz: 4096 	 Sm: 0 	 T: memcpy_h2d(0.175557)
F:  2048043----T:  2048303 	 St: 807e9000 Sz: 4096 	 Sm: 0 	 T: memcpy_h2d(0.175557)
F:  2048303----T:  2048563 	 St: 805bc000 Sz: 4096 	 Sm: 0 	 T: memcpy_h2d(0.175557)
F:  2048563----T:  2048823 	 St: 807d4000 Sz: 4096 	 Sm: 0 	 T: memcpy_h2d(0.175557)
F:  2048707----T:  2048967 	 St: 80736000 Sz: 4096 	 Sm: 0 	 T: write_back(0.175557)
F:  2048823----T:  2049076 	 St: 805d8fc0 Sz: 64 	 Sm: 0 	 T: rdma(0.170831)
F:  2049076----T:  2049329 	 St: 805d9000 Sz: 128 	 Sm: 0 	 T: rdma(0.170831)
F:  2049227----T:  2049487 	 St: 80527000 Sz: 4096 	 Sm: 0 	 T: write_back(0.175557)
F:  2049329----T:  2049589 	 St: 807d2000 Sz: 4096 	 Sm: 0 	 T: memcpy_h2d(0.175557)
F:  2049589----T:  2049849 	 St: 807d8000 Sz: 4096 	 Sm: 0 	 T: memcpy_h2d(0.175557)
F:  2049849----T:  2050109 	 St: 807d1000 Sz: 4096 	 Sm: 0 	 T: memcpy_h2d(0.175557)
F:  2050002----T:  2050262 	 St: 80737000 Sz: 4096 	 Sm: 0 	 T: write_back(0.175557)
F:  2050109----T:  2050362 	 St: 805c2f00 Sz: 128 	 Sm: 0 	 T: rdma(0.170831)
F:  2050262----T:  2050522 	 St: 80528000 Sz: 4096 	 Sm: 0 	 T: write_back(0.175557)
F:  2050362----T:  2050615 	 St: 805c2f80 Sz: 32 	 Sm: 0 	 T: rdma(0.170831)
F:  2050522----T:  2050782 	 St: 80738000 Sz: 4096 	 Sm: 0 	 T: write_back(0.175557)
F:  2050615----T:  2050868 	 St: 805c2f80 Sz: 128 	 Sm: 0 	 T: rdma(0.170831)
F:  2050868----T:  2051121 	 St: 805c8000 Sz: 128 	 Sm: 0 	 T: rdma(0.170831)
F:  2051121----T:  2051374 	 St: 805c1f80 Sz: 128 	 Sm: 0 	 T: rdma(0.170831)
F:  2051374----T:  2051634 	 St: 807d6000 Sz: 4096 	 Sm: 0 	 T: memcpy_h2d(0.175557)
F:  2051634----T:  2051894 	 St: 807d5000 Sz: 4096 	 Sm: 0 	 T: memcpy_h2d(0.175557)
F:  2051894----T:  2052154 	 St: 807dc000 Sz: 4096 	 Sm: 0 	 T: memcpy_h2d(0.175557)
F:  2052041----T:  2052301 	 St: 80529000 Sz: 4096 	 Sm: 0 	 T: write_back(0.175557)
F:  2052154----T:  2052407 	 St: 805c6640 Sz: 64 	 Sm: 0 	 T: rdma(0.170831)
F:  2052301----T:  2052561 	 St: 8052a000 Sz: 4096 	 Sm: 0 	 T: write_back(0.175557)
F:  2052407----T:  2052660 	 St: 805c5000 Sz: 128 	 Sm: 0 	 T: rdma(0.170831)
F:  2052561----T:  2052821 	 St: 8052b000 Sz: 4096 	 Sm: 0 	 T: write_back(0.175557)
F:  2052660----T:  2052920 	 St: 807dd000 Sz: 4096 	 Sm: 0 	 T: memcpy_h2d(0.175557)
F:  2052920----T:  2053180 	 St: 807db000 Sz: 4096 	 Sm: 0 	 T: memcpy_h2d(0.175557)
F:  2053180----T:  2053440 	 St: 807df000 Sz: 4096 	 Sm: 0 	 T: memcpy_h2d(0.175557)
F:  2053319----T:  2053579 	 St: 80739000 Sz: 4096 	 Sm: 0 	 T: write_back(0.175557)
F:  2053440----T:  2053693 	 St: 805cda00 Sz: 128 	 Sm: 0 	 T: rdma(0.170831)
F:  2053579----T:  2053839 	 St: 8052c000 Sz: 4096 	 Sm: 0 	 T: write_back(0.175557)
F:  2053693----T:  2053953 	 St: 807d9000 Sz: 4096 	 Sm: 0 	 T: memcpy_h2d(0.175557)
F:  2053839----T:  2054099 	 St: 8073a000 Sz: 4096 	 Sm: 0 	 T: write_back(0.175557)
F:  2053953----T:  2054206 	 St: 805cf280 Sz: 128 	 Sm: 0 	 T: rdma(0.170831)
F:  2054206----T:  2054466 	 St: 807de000 Sz: 4096 	 Sm: 0 	 T: memcpy_h2d(0.175557)
F:  2054361----T:  2054621 	 St: 8052d000 Sz: 4096 	 Sm: 0 	 T: write_back(0.175557)
F:  2054466----T:  2054719 	 St: 805c9f80 Sz: 128 	 Sm: 0 	 T: rdma(0.170831)
F:  2054719----T:  2054972 	 St: 805ca000 Sz: 64 	 Sm: 0 	 T: rdma(0.170831)
F:  2054869----T:  2055129 	 St: 8073b000 Sz: 4096 	 Sm: 0 	 T: write_back(0.175557)
F:  2054972----T:  2055225 	 St: 805ce280 Sz: 128 	 Sm: 0 	 T: rdma(0.170831)
F:  2055225----T:  2055485 	 St: 807e0000 Sz: 4096 	 Sm: 0 	 T: memcpy_h2d(0.175557)
F:  2055485----T:  2055745 	 St: 807da000 Sz: 4096 	 Sm: 0 	 T: memcpy_h2d(0.175557)
F:  2055745----T:  2056005 	 St: 805c0000 Sz: 4096 	 Sm: 0 	 T: memcpy_h2d(0.175557)
F:  2055877----T:  2056137 	 St: 8052e000 Sz: 4096 	 Sm: 0 	 T: write_back(0.175557)
F:  2056005----T:  2056258 	 St: 805d0c00 Sz: 128 	 Sm: 0 	 T: rdma(0.170831)
F:  2056151----T:  2056411 	 St: 8073c000 Sz: 4096 	 Sm: 0 	 T: write_back(0.175557)
F:  2056258----T:  2056518 	 St: 805c3000 Sz: 4096 	 Sm: 0 	 T: memcpy_h2d(0.175557)
F:  2056518----T:  2056778 	 St: 805c7000 Sz: 4096 	 Sm: 0 	 T: memcpy_h2d(0.175557)
F:  2056778----T:  2057038 	 St: 805b5000 Sz: 4096 	 Sm: 0 	 T: memcpy_h2d(0.175557)
F:  2057038----T:  2057298 	 St: 805b1000 Sz: 4096 	 Sm: 0 	 T: memcpy_h2d(0.175557)
F:  2057298----T:  2057558 	 St: 805b6000 Sz: 4096 	 Sm: 0 	 T: memcpy_h2d(0.175557)
F:  2057558----T:  2057818 	 St: 805b3000 Sz: 4096 	 Sm: 0 	 T: memcpy_h2d(0.175557)
F:  2057818----T:  2058078 	 St: 805b4000 Sz: 4096 	 Sm: 0 	 T: memcpy_h2d(0.175557)
F:  2058078----T:  2058338 	 St: 805bd000 Sz: 4096 	 Sm: 0 	 T: memcpy_h2d(0.175557)
F:  2058338----T:  2058598 	 St: 805bf000 Sz: 4096 	 Sm: 0 	 T: memcpy_h2d(0.175557)
F:  2058598----T:  2058858 	 St: 805bb000 Sz: 4096 	 Sm: 0 	 T: memcpy_h2d(0.175557)
F:  2058858----T:  2059118 	 St: 805b9000 Sz: 4096 	 Sm: 0 	 T: memcpy_h2d(0.175557)
F:  2059118----T:  2059378 	 St: 805b8000 Sz: 4096 	 Sm: 0 	 T: memcpy_h2d(0.175557)
F:  2059378----T:  2059638 	 St: 805ba000 Sz: 4096 	 Sm: 0 	 T: memcpy_h2d(0.175557)
F:  2059638----T:  2059898 	 St: 805be000 Sz: 4096 	 Sm: 0 	 T: memcpy_h2d(0.175557)
F:  2059898----T:  2060158 	 St: 807e6000 Sz: 4096 	 Sm: 0 	 T: memcpy_h2d(0.175557)
F:  2060158----T:  2060418 	 St: 807e4000 Sz: 4096 	 Sm: 0 	 T: memcpy_h2d(0.175557)
F:  2060418----T:  2060678 	 St: 807e2000 Sz: 4096 	 Sm: 0 	 T: memcpy_h2d(0.175557)
F:  2060571----T:  2060831 	 St: 8073d000 Sz: 4096 	 Sm: 0 	 T: write_back(0.175557)
F:  2060678----T:  2060931 	 St: 805d7000 Sz: 128 	 Sm: 0 	 T: rdma(0.170831)
F:  2060931----T:  2061191 	 St: 807e3000 Sz: 4096 	 Sm: 0 	 T: memcpy_h2d(0.175557)
F:  2061086----T:  2061346 	 St: 8073e000 Sz: 4096 	 Sm: 0 	 T: write_back(0.175557)
F:  2061191----T:  2061444 	 St: 805d2000 Sz: 64 	 Sm: 0 	 T: rdma(0.170831)
F:  2061444----T:  2061704 	 St: 807ea000 Sz: 4096 	 Sm: 0 	 T: memcpy_h2d(0.175557)
F:  2061613----T:  2061873 	 St: 8052f000 Sz: 4096 	 Sm: 0 	 T: write_back(0.175557)
F:  2061704----T:  2061957 	 St: 805d3000 Sz: 64 	 Sm: 0 	 T: rdma(0.170831)
F:  2061957----T:  2062217 	 St: 807e8000 Sz: 4096 	 Sm: 0 	 T: memcpy_h2d(0.175557)
F:  2062110----T:  2062370 	 St: 8073f000 Sz: 4096 	 Sm: 0 	 T: write_back(0.175557)
F:  2062217----T:  2062470 	 St: 805da000 Sz: 64 	 Sm: 0 	 T: rdma(0.170831)
F:  2062470----T:  2062730 	 St: 807e7000 Sz: 4096 	 Sm: 0 	 T: memcpy_h2d(0.175557)
F:  2062611----T:  2062871 	 St: 80530000 Sz: 4096 	 Sm: 0 	 T: write_back(0.175557)
F:  2062730----T:  2062990 	 St: 805d1000 Sz: 4096 	 Sm: 0 	 T: memcpy_h2d(0.175557)
F:  2062990----T:  2063250 	 St: 805d5000 Sz: 4096 	 Sm: 0 	 T: memcpy_h2d(0.175557)
F:  2063129----T:  2063389 	 St: 80740000 Sz: 4096 	 Sm: 0 	 T: write_back(0.175557)
F:  2063250----T:  2063503 	 St: 805d7280 Sz: 128 	 Sm: 0 	 T: rdma(0.170831)
F:  2063503----T:  2063756 	 St: 805d7300 Sz: 32 	 Sm: 0 	 T: rdma(0.170831)
F:  2063756----T:  2064016 	 St: 805d9000 Sz: 4096 	 Sm: 0 	 T: memcpy_h2d(0.175557)
F:  2064016----T:  2064276 	 St: 805c4000 Sz: 4096 	 Sm: 0 	 T: memcpy_h2d(0.175557)
F:  2064276----T:  2064536 	 St: 805c2000 Sz: 4096 	 Sm: 0 	 T: memcpy_h2d(0.175557)
F:  2064536----T:  2064796 	 St: 805c8000 Sz: 4096 	 Sm: 0 	 T: memcpy_h2d(0.175557)
F:  2064796----T:  2065056 	 St: 805c1000 Sz: 4096 	 Sm: 0 	 T: memcpy_h2d(0.175557)
F:  2065056----T:  2065316 	 St: 805c6000 Sz: 4096 	 Sm: 0 	 T: memcpy_h2d(0.175557)
F:  2065316----T:  2065576 	 St: 805c5000 Sz: 4096 	 Sm: 0 	 T: memcpy_h2d(0.175557)
F:  2065576----T:  2065836 	 St: 805cc000 Sz: 4096 	 Sm: 0 	 T: memcpy_h2d(0.175557)
F:  2065836----T:  2066096 	 St: 805cd000 Sz: 4096 	 Sm: 0 	 T: memcpy_h2d(0.175557)
F:  2066096----T:  2066356 	 St: 805cb000 Sz: 4096 	 Sm: 0 	 T: memcpy_h2d(0.175557)
F:  2066356----T:  2066616 	 St: 805cf000 Sz: 4096 	 Sm: 0 	 T: memcpy_h2d(0.175557)
F:  2066616----T:  2066876 	 St: 805c9000 Sz: 4096 	 Sm: 0 	 T: memcpy_h2d(0.175557)
F:  2066876----T:  2067136 	 St: 805ce000 Sz: 4096 	 Sm: 0 	 T: memcpy_h2d(0.175557)
F:  2067136----T:  2067396 	 St: 805d0000 Sz: 4096 	 Sm: 0 	 T: memcpy_h2d(0.175557)
F:  2067396----T:  2067656 	 St: 805ca000 Sz: 4096 	 Sm: 0 	 T: memcpy_h2d(0.175557)
F:  2067656----T:  2067916 	 St: 805d6000 Sz: 4096 	 Sm: 0 	 T: memcpy_h2d(0.175557)
F:  2067916----T:  2068176 	 St: 805d2000 Sz: 4096 	 Sm: 0 	 T: memcpy_h2d(0.175557)
F:  2068176----T:  2068436 	 St: 805d3000 Sz: 4096 	 Sm: 0 	 T: memcpy_h2d(0.175557)
F:  2068436----T:  2068696 	 St: 805da000 Sz: 4096 	 Sm: 0 	 T: memcpy_h2d(0.175557)
F:  2068696----T:  2068956 	 St: 805d8000 Sz: 4096 	 Sm: 0 	 T: memcpy_h2d(0.175557)
F:  2068956----T:  2069216 	 St: 805d7000 Sz: 4096 	 Sm: 0 	 T: memcpy_h2d(0.175557)
F:  2070181----T:  2070441 	 St: 0 Sz: 4096 	 Sm: 0 	 T: device_sync(0.175557)
F:  2070181----T:  2071005 	 St: 0 Sz: 61440 	 Sm: 0 	 T: device_sync(0.556381)
F:  2071265----T:  2071525 	 St: 0 Sz: 4096 	 Sm: 0 	 T: device_sync(0.175557)
F:  2071265----T:  2072089 	 St: 0 Sz: 61440 	 Sm: 0 	 T: device_sync(0.556381)
F:  2072349----T:  2072609 	 St: 0 Sz: 4096 	 Sm: 0 	 T: device_sync(0.175557)
F:  2072349----T:  2073918 	 St: 0 Sz: 126976 	 Sm: 0 	 T: device_sync(1.059419)
F:  2074178----T:  2074438 	 St: 0 Sz: 4096 	 Sm: 0 	 T: device_sync(0.175557)
F:  2074178----T:  2077250 	 St: 0 Sz: 258048 	 Sm: 0 	 T: device_sync(2.074274)
F:  2077510----T:  2077770 	 St: 0 Sz: 4096 	 Sm: 0 	 T: device_sync(0.175557)
F:  2077510----T:  2083593 	 St: 0 Sz: 520192 	 Sm: 0 	 T: device_sync(4.107360)
F:  2083853----T:  2084113 	 St: 0 Sz: 4096 	 Sm: 0 	 T: device_sync(0.175557)
F:  2083853----T:  2087866 	 St: 0 Sz: 339968 	 Sm: 0 	 T: device_sync(2.709656)
Tot_prefetch_time: 0(cycle), 0.000000(us)
Tot_kernel_exec_time: 1609018(cycle), 1086.440186(us)
Tot_kernel_exec_time_and_fault_time: 42529048(cycle), 28716.439453(us)
Tot_memcpy_h2d_time: 186437(cycle), 125.885887(us)
Tot_memcpy_d2h_time: 0(cycle), 0.000000(us)
Tot_memcpy_time: 186437(cycle), 125.885887(us)
Tot_devicesync_time: 34808(cycle), 23.503038(us)
Tot_writeback_time: 67080(cycle), 45.293720(us)
Tot_rdma_time: 1401873(cycle), 946.571899(us)
Tot_memcpy_d2h_sync_wb_time: 101888(cycle), 68.796761(us)
GPGPU-Sim: *** exit detected ***
