

        *** GPGPU-Sim Simulator Version 3.2.2  [build gpgpu-sim_git-commit-192e696560217fbde0ca32c0b7f1cb04a8d61fd3_modified_1] ***


GPGPU-Sim PTX: simulation mode 0 (can change with PTX_SIM_MODE_FUNC environment variable:
               1=functional simulation only, 0=detailed performance simulator)
GPGPU-Sim: Configuration options:

-network_mode                           1 # Interconnection network mode
-inter_config_file   config_fermi_islip.icnt # Interconnection network config file
-gpgpu_ptx_use_cuobjdump                    1 # Use cuobjdump to extract ptx and sass from binaries
-gpgpu_experimental_lib_support                    0 # Try to extract code from cuda libraries [Broken because of unknown cudaGetExportTable]
-gpgpu_ptx_convert_to_ptxplus                    0 # Convert SASS (native ISA) to ptxplus and run ptxplus
-gpgpu_ptx_force_max_capability                   20 # Force maximum compute capability
-gpgpu_ptx_inst_debug_to_file                    0 # Dump executed instructions' debug information to file
-gpgpu_ptx_inst_debug_file       inst_debug.txt # Executed instructions' debug output file
-gpgpu_ptx_inst_debug_thread_uid                    1 # Thread UID for executed instructions' debug output
-gpgpu_simd_model                       1 # 1 = post-dominator
-gpgpu_shader_core_pipeline              2048:32 # shader core pipeline config, i.e., {<nthread>:<warpsize>}
-gpgpu_tex_cache:l1  16:128:24,L:R:m:N:L,F:128:4,128:2 # per-shader L1 texture cache  (READ-ONLY) config  {<nsets>:<bsize>:<assoc>,<rep>:<wr>:<alloc>:<wr_alloc>,<mshr>:<N>:<merge>,<mq>:<rf>}
-gpgpu_const_cache:l1 128:64:2,L:R:f:N:L,A:2:64,4 # per-shader L1 constant memory cache  (READ-ONLY) config  {<nsets>:<bsize>:<assoc>,<rep>:<wr>:<alloc>:<wr_alloc>,<mshr>:<N>:<merge>,<mq>} 
-gpgpu_cache:il1     8:128:4,L:R:f:N:L,A:2:48,4 # shader L1 instruction cache config  {<nsets>:<bsize>:<assoc>,<rep>:<wr>:<alloc>:<wr_alloc>,<mshr>:<N>:<merge>,<mq>} 
-gpgpu_cache:dl1     64:128:6,L:L:m:N:H,A:128:8,8 # per-shader L1 data cache config  {<nsets>:<bsize>:<assoc>,<rep>:<wr>:<alloc>:<wr_alloc>,<mshr>:<N>:<merge>,<mq> | none}
-gpgpu_cache:dl1PrefL1                 none # per-shader L1 data cache config  {<nsets>:<bsize>:<assoc>,<rep>:<wr>:<alloc>:<wr_alloc>,<mshr>:<N>:<merge>,<mq> | none}
-gpgpu_cache:dl1PrefShared                 none # per-shader L1 data cache config  {<nsets>:<bsize>:<assoc>,<rep>:<wr>:<alloc>:<wr_alloc>,<mshr>:<N>:<merge>,<mq> | none}
-gmem_skip_L1D                          1 # global memory access skip L1D cache (implements -Xptxas -dlcm=cg, default=no skip)
-gpgpu_perfect_mem                      0 # enable perfect memory mode (no cache miss)
-n_regfile_gating_group                    4 # group of lanes that should be read/written together)
-gpgpu_clock_gated_reg_file                    0 # enable clock gated reg file for power calculations
-gpgpu_clock_gated_lanes                    0 # enable clock gated lanes for power calculations
-gpgpu_shader_registers                65536 # Number of registers per shader core. Limits number of concurrent CTAs. (default 8192)
-gpgpu_shader_cta                      32 # Maximum number of concurrent CTAs in shader (default 8)
-gpgpu_num_cta_barriers                   16 # Maximum number of named barriers per CTA (default 16)
-gpgpu_n_clusters                      28 # number of processing clusters
-gpgpu_n_cores_per_cluster                    1 # number of simd cores per cluster
-gpgpu_n_cluster_ejection_buffer_size                    8 # number of packets in ejection buffer
-gpgpu_n_ldst_response_buffer_size                    2 # number of response packets in ld/st unit ejection buffer
-gpgpu_shmem_size                   16384 # Size of shared memory per shader core (default 16kB)
-gpgpu_shmem_size                   98304 # Size of shared memory per shader core (default 16kB)
-gpgpu_shmem_size_PrefL1                16384 # Size of shared memory per shader core (default 16kB)
-gpgpu_shmem_size_PrefShared                16384 # Size of shared memory per shader core (default 16kB)
-gpgpu_shmem_num_banks                   32 # Number of banks in the shared memory in each shader core (default 16)
-gpgpu_shmem_limited_broadcast                    0 # Limit shared memory to do one broadcast per cycle (default on)
-gpgpu_shmem_warp_parts                    1 # Number of portions a warp is divided into for shared memory bank conflict check 
-gpgpu_warpdistro_shader                   -1 # Specify which shader core to collect the warp size distribution from
-gpgpu_warp_issue_shader                    0 # Specify which shader core to collect the warp issue distribution from
-gpgpu_local_mem_map                    1 # Mapping from local memory space address to simulated GPU physical address space (default = enabled)
-gpgpu_num_reg_banks                   32 # Number of register banks (default = 8)
-gpgpu_reg_bank_use_warp_id                    0 # Use warp ID in mapping registers to banks (default = off)
-gpgpu_operand_collector_num_units_sp                   20 # number of collector units (default = 4)
-gpgpu_operand_collector_num_units_sfu                    4 # number of collector units (default = 4)
-gpgpu_operand_collector_num_units_mem                    8 # number of collector units (default = 2)
-gpgpu_operand_collector_num_units_gen                    0 # number of collector units (default = 0)
-gpgpu_operand_collector_num_in_ports_sp                    4 # number of collector unit in ports (default = 1)
-gpgpu_operand_collector_num_in_ports_sfu                    1 # number of collector unit in ports (default = 1)
-gpgpu_operand_collector_num_in_ports_mem                    1 # number of collector unit in ports (default = 1)
-gpgpu_operand_collector_num_in_ports_gen                    0 # number of collector unit in ports (default = 0)
-gpgpu_operand_collector_num_out_ports_sp                    4 # number of collector unit in ports (default = 1)
-gpgpu_operand_collector_num_out_ports_sfu                    1 # number of collector unit in ports (default = 1)
-gpgpu_operand_collector_num_out_ports_mem                    1 # number of collector unit in ports (default = 1)
-gpgpu_operand_collector_num_out_ports_gen                    0 # number of collector unit in ports (default = 0)
-gpgpu_coalesce_arch                   13 # Coalescing arch (default = 13, anything else is off for now)
-gpgpu_num_sched_per_core                    2 # Number of warp schedulers per core
-gpgpu_max_insn_issue_per_warp                    2 # Max number of instructions that can be issued per warp in one cycle by scheduler
-gpgpu_simt_core_sim_order                    1 # Select the simulation order of cores in a cluster (0=Fix, 1=Round-Robin)
-gpgpu_pipeline_widths        4,1,1,4,1,1,6 # Pipeline widths ID_OC_SP,ID_OC_SFU,ID_OC_MEM,OC_EX_SP,OC_EX_SFU,OC_EX_MEM,EX_WB
-gpgpu_num_sp_units                     4 # Number of SP units (default=1)
-gpgpu_num_sfu_units                    1 # Number of SF units (default=1)
-gpgpu_num_mem_units                    1 # Number if ldst units (default=1) WARNING: not hooked up to anything
-gpgpu_scheduler                      gto # Scheduler configuration: < lrr | gto | two_level_active > If two_level_active:<num_active_warps>:<inner_prioritization>:<outer_prioritization>For complete list of prioritization values see shader.h enum scheduler_prioritization_typeDefault: gto
-gpgpu_concurrent_kernel_sm                    0 # Support concurrent kernels on a SM (default = disabled)
-tlb_size                            4096 # Number of tlb entries per SM.
-gpgpu_dram_scheduler                    1 # 0 = fifo, 1 = FR-FCFS (defaul)
-gpgpu_dram_partition_queues              8:8:8:8 # i2$:$2d:d2$:$2i
-l2_ideal                               0 # Use a ideal L2 cache that always hit
-gpgpu_cache:dl2     64:128:16,L:B:m:W:L,A:1024:1024,4:0,32 # unified banked L2 data cache config  {<nsets>:<bsize>:<assoc>,<rep>:<wr>:<alloc>:<wr_alloc>,<mshr>:<N>:<merge>,<mq>}
-gpgpu_cache:dl2_texture_only                    0 # L2 cache used for texture only
-gpgpu_n_mem                           11 # number of memory modules (e.g. memory controllers) in gpu
-gpgpu_n_sub_partition_per_mchannel                    2 # number of memory subpartition in each memory module
-gpgpu_n_mem_per_ctrlr                    1 # number of memory chips per memory controller
-gpgpu_memlatency_stat                   14 # track and display latency statistics 0x2 enables MC, 0x4 enables queue logs
-gpgpu_frfcfs_dram_sched_queue_size                   64 # 0 = unlimited (default); # entries per chip
-gpgpu_dram_return_queue_size                  116 # 0 = unlimited (default); # entries per chip
-gpgpu_dram_buswidth                    4 # default = 4 bytes (8 bytes per cycle at DDR)
-gpgpu_dram_burst_length                    8 # Burst length of each DRAM request (default = 4 data bus cycle)
-dram_data_command_freq_ratio                    4 # Frequency ratio between DRAM data bus and command bus (default = 2 times, i.e. DDR)
-gpgpu_dram_timing_opt nbk=16:CCD=2:RRD=6:RCD=12:RAS=28:RP=12:RC=40: CL=12:WL=4:CDLR=5:WR=12:nbkgrp=1:CCDL=0:RTPL=0 # DRAM timing parameters = {nbk:tCCD:tRRD:tRCD:tRAS:tRP:tRC:CL:WL:tCDLR:tWR:nbkgrp:tCCDL:tRTPL}
-rop_latency                          120 # ROP queue latency (default 85)
-dram_latency                         100 # DRAM latency (default 30)
-gpgpu_mem_addr_mapping dramid@8;00000000.00000000.00000000.00000000.0000RRRR.RRRRRRRR.RBBBCCCC.BCCSSSSS # mapping memory address to dram model {dramid@<start bit>;<memory address map>}
-gpgpu_mem_addr_test                    0 # run sweep test to check address mapping for aliased address
-gpgpu_mem_address_mask                    1 # 0 = old addressing mask, 1 = new addressing mask, 2 = new add. mask + flipped bank sel and chip sel bits
-gpuwattch_xml_file  gpuwattch_geforcegtx1080ti.xml # GPUWattch XML file
-power_simulation_enabled                    1 # Turn on power simulator (1=On, 0=Off)
-power_per_cycle_dump                    0 # Dump detailed power output each cycle
-power_trace_enabled                    0 # produce a file for the power trace (1=On, 0=Off)
-power_trace_zlevel                     6 # Compression level of the power trace output log (0=no comp, 9=highest)
-steady_power_levels_enabled                    0 # produce a file for the steady power levels (1=On, 0=Off)
-steady_state_definition                  8:4 # allowed deviation:number of samples
-gpgpu_max_cycle                        0 # terminates gpu simulation early (0 = no limit)
-gpgpu_max_insn                         0 # terminates gpu simulation early (0 = no limit)
-gpgpu_max_cta                          0 # terminates gpu simulation early (0 = no limit)
-gpgpu_runtime_stat                   500 # display runtime statistics such as dram utilization {<freq>:<flag>}
-liveness_message_freq                    1 # Minimum number of seconds between simulation liveness messages (0 = always print)
-gpgpu_flush_l1_cache                    0 # Flush L1 cache at the end of each kernel call
-gpgpu_flush_l2_cache                    0 # Flush L2 cache at the end of each kernel call
-gpgpu_deadlock_detect                    0 # Stop the simulation at deadlock (1=on (default), 0=off)
-gpgpu_ptx_instruction_classification                    0 # if enabled will classify ptx instruction types per kernel (Max 255 kernels now)
-gpgpu_ptx_sim_mode                     0 # Select between Performance (default) or Functional simulation (1)
-gpgpu_clock_domains 1481.0:2962.0:1481.0:2750.0 # Clock Domain Frequencies in MhZ {<Core Clock>:<ICNT Clock>:<L2 Clock>:<DRAM Clock>}
-gpgpu_max_concurrent_kernel                    8 # maximum kernels that can run concurrently on GPU
-gpgpu_cflog_interval                    0 # Interval between each snapshot in control flow logger
-visualizer_enabled                     0 # Turn on visualizer output (1=On, 0=Off)
-visualizer_outputfile                 NULL # Specifies the output log file for visualizer
-visualizer_zlevel                      6 # Compression level of the visualizer output log (0=no comp, 9=highest)
-trace_enabled                          0 # Turn on traces
-trace_components                    none # comma seperated list of traces to enable. Complete list found in trace_streams.tup. Default none
-trace_sampling_core                    0 # The core which is printed using CORE_DPRINTF. Default 0
-trace_sampling_memory_partition                   -1 # The memory partition which is printed using MEMPART_DPRINTF. Default -1 (i.e. all)
-gddr_size                      2.27136MB # Size of GDDR in MB/GB.(GLOBAL_HEAP_START, GLOBAL_HEAP_START + gddr_size) would be used for unmanged memory, (GLOBAL_HEAP_START + gddr_size, GLOBAL_HEAP_START + gddr_size*2) would be used for managed memory. 
-page_table_walk_latency                  100 # Average page table walk latency (in core cycle).
-eviction_policy                      lru # Memory eviction policy: lru or random.
-percentage_of_free_page_buffer                    0 # Percentage of free page buffer to trigger the page eviction.
-page_size                            4KB # GDDR page size, only 4KB/2MB avaliable.
-pcie_bandwith                   16.0GB/s # PCI-e bandwith per direction, in GB/s.
-enable_nvlink                          1 # Enable nvlink 2.0, 150.0GB/s
-enable_rdma                            1 # Enable remote direct memory access
-migrate_threshold                     10 # Access counter threshold for migrating the page from cpu to gpu
-sim_prof_enable                        1 # Enable gpgpu-sim profiler
-hardware_prefetch                      1 # Enable gpgpu-sim hardware prefetcher
-page_fault_latency                 66645 # Average fault latency (in core cycle).
-enable_accurate_simulation                    0 # Enable page fault functional simulation.
-enable_ptx_file_line_stats                    1 # Turn on PTX source line statistic profiling. (1 = On)
-ptx_line_stats_filename gpgpu_inst_stats.txt # Output file for PTX source line statistics.
-gpgpu_kernel_launch_latency               222150 # Kernel launch latency in cycles. Default: 0
-gpgpu_cdp_enabled                      0 # Turn on CDP
-save_embedded_ptx                      0 # saves ptx files embedded in binary as <n>.ptx
-keep                                   0 # keep intermediate files created by GPGPU-Sim when interfacing with external programs
-gpgpu_ptx_save_converted_ptxplus                    0 # Saved converted ptxplus to a file
-ptx_opcode_latency_int         4,13,4,5,145 # Opcode latencies for integers <ADD,MAX,MUL,MAD,DIV>Default 1,1,19,25,145
-ptx_opcode_latency_fp          4,13,4,5,39 # Opcode latencies for single precision floating points <ADD,MAX,MUL,MAD,DIV>Default 1,1,1,1,30
-ptx_opcode_latency_dp         8,19,8,8,330 # Opcode latencies for double precision floating points <ADD,MAX,MUL,MAD,DIV>Default 8,8,8,8,335
-ptx_opcode_initiation_int            1,2,2,2,8 # Opcode initiation intervals for integers <ADD,MAX,MUL,MAD,DIV>Default 1,1,4,4,32
-ptx_opcode_initiation_fp            1,2,1,1,4 # Opcode initiation intervals for single precision floating points <ADD,MAX,MUL,MAD,DIV>Default 1,1,1,1,5
-ptx_opcode_initiation_dp          1,2,1,1,130 # Opcode initiation intervals for double precision floating points <ADD,MAX,MUL,MAD,DIV>Default 8,8,8,8,130
-cdp_latency         7200,8000,100,12000,1600 # CDP API latency <cudaStreamCreateWithFlags, cudaGetParameterBufferV2_init_perWarp, cudaGetParameterBufferV2_perKernel, cudaLaunchDeviceV2_init_perWarp, cudaLaunchDevicV2_perKernel>Default 7200,8000,100,12000,1600
DRAM Timing Options:
nbk                                    16 # number of banks
CCD                                     2 # column to column delay
RRD                                     6 # minimal delay between activation of rows in different banks
RCD                                    12 # row to column delay
RAS                                    28 # time needed to activate row
RP                                     12 # time needed to precharge (deactivate) row
RC                                     40 # row cycle time
CDLR                                    5 # switching from write to read (changes tWTR)
WR                                     12 # last data-in to row precharge
CL                                     12 # CAS latency
WL                                      4 # Write latency
nbkgrp                                  1 # number of bank groups
CCDL                                    0 # column to column delay between accesses to different bank groups
RTPL                                    0 # read to precharge delay between accesses to different bank groups
Total number of memory sub partition = 22
addr_dec_mask[CHIP]  = 0000000000000000 	high:64 low:0
addr_dec_mask[BK]    = 0000000000007080 	high:15 low:7
addr_dec_mask[ROW]   = 000000000fff8000 	high:28 low:15
addr_dec_mask[COL]   = 0000000000000f7f 	high:12 low:0
addr_dec_mask[BURST] = 000000000000001f 	high:5 low:0
sub_partition_id_mask = 0000000000000080
GPGPU-Sim uArch: clock freqs: 1481000000.000000:2962000000.000000:1481000000.000000:2750000000.000000
GPGPU-Sim uArch: clock periods: 0.00000000067521944632:0.00000000033760972316:0.00000000067521944632:0.00000000036363636364
*** Initializing Memory Statistics ***
GPGPU-Sim uArch: interconnect node map (shaderID+MemID to icntID)
GPGPU-Sim uArch: Memory nodes ID start from index: 28
GPGPU-Sim uArch:    0   1   2   3   4   5   6
GPGPU-Sim uArch:    7   8   9  10  11  12  13
GPGPU-Sim uArch:   14  15  16  17  18  19  20
GPGPU-Sim uArch:   21  22  23  24  25  26  27
GPGPU-Sim uArch:   28  29  30  31  32  33  34
GPGPU-Sim uArch:   35  36  37  38  39  40  41
GPGPU-Sim uArch:   42  43  44  45  46  47  48
GPGPU-Sim uArch:   49
GPGPU-Sim uArch: interconnect node reverse map (icntID to shaderID+MemID)
GPGPU-Sim uArch: Memory nodes start from ID: 28
GPGPU-Sim uArch:    0   1   2   3   4   5   6
GPGPU-Sim uArch:    7   8   9  10  11  12  13
GPGPU-Sim uArch:   14  15  16  17  18  19  20
GPGPU-Sim uArch:   21  22  23  24  25  26  27
GPGPU-Sim uArch:   28  29  30  31  32  33  34
GPGPU-Sim uArch:   35  36  37  38  39  40  41
GPGPU-Sim uArch:   42  43  44  45  46  47  48
GPGPU-Sim uArch:   49
ba891275053276a4631579b410fbb51f  /home/gpuser/Desktop/gpgpu-sim_UVM/benchmarks/Managed/bfs/bfs
GPGPU-Sim uArch: performance model initialization complete.
GPGPU-Sim PTX: __cudaRegisterFatBinary, fat_cubin_handle = 1, filename=default
self exe links to: /home/gpuser/Desktop/gpgpu-sim_UVM/benchmarks/Managed/bfs/bfs
Running md5sum using "md5sum /home/gpuser/Desktop/gpgpu-sim_UVM/benchmarks/Managed/bfs/bfs "
Parsing file _cuobjdump_complete_output_BamlgL
######### cuobjdump parser ########
## Adding new section ELF
Adding arch: sm_20
Adding identifier: default
## Adding new section ELF
Adding arch: sm_20
Adding identifier: default
## Adding new section PTX
Adding ptx filename: _cuobjdump_1.ptx
Adding arch: sm_20
Adding identifier: default
Done parsing!!!
GPGPU-Sim PTX: __cudaRegisterFunction _Z7Kernel2PbS_S_S_i : hostFun 0x0x401649, fat_cubin_handle = 1
GPGPU-Sim PTX: instruction assembly for function '_Z6KernelP4NodePiPbS2_S2_S1_i'...   done.
GPGPU-Sim PTX: finding reconvergence points for '_Z6KernelP4NodePiPbS2_S2_S1_i'...
GPGPU-Sim PTX: Finding dominators for '_Z6KernelP4NodePiPbS2_S2_S1_i'...
GPGPU-Sim PTX: Finding immediate dominators for '_Z6KernelP4NodePiPbS2_S2_S1_i'...
GPGPU-Sim PTX: Finding postdominators for '_Z6KernelP4NodePiPbS2_S2_S1_i'...
GPGPU-Sim PTX: Finding immediate postdominators for '_Z6KernelP4NodePiPbS2_S2_S1_i'...
GPGPU-Sim PTX: pre-decoding instructions for '_Z6KernelP4NodePiPbS2_S2_S1_i'...
GPGPU-Sim PTX: reconvergence points for _Z6KernelP4NodePiPbS2_S2_S1_i...
GPGPU-Sim PTX:  1 (potential) branch divergence @  PC=0x060 (_1.ptx:42) @%p1 bra BB0_7;
GPGPU-Sim PTX:    immediate post dominator      @  PC=0x1e8 (_1.ptx:101) ret;
GPGPU-Sim PTX:  2 (potential) branch divergence @  PC=0x090 (_1.ptx:49) @%p2 bra BB0_7;
GPGPU-Sim PTX:    immediate post dominator      @  PC=0x1e8 (_1.ptx:101) ret;
GPGPU-Sim PTX:  3 (potential) branch divergence @  PC=0x0d8 (_1.ptx:59) @%p3 bra BB0_7;
GPGPU-Sim PTX:    immediate post dominator      @  PC=0x1e8 (_1.ptx:101) ret;
GPGPU-Sim PTX:  4 (potential) branch divergence @  PC=0x160 (_1.ptx:79) @%p4 bra BB0_6;
GPGPU-Sim PTX:    immediate post dominator      @  PC=0x1b8 (_1.ptx:93) mov.u32 %r24, %r25;
GPGPU-Sim PTX:  5 (potential) branch divergence @  PC=0x1e0 (_1.ptx:98) @%p5 bra BB0_4;
GPGPU-Sim PTX:    immediate post dominator      @  PC=0x1e8 (_1.ptx:101) ret;
GPGPU-Sim PTX: ... end of reconvergence points for _Z6KernelP4NodePiPbS2_S2_S1_i
GPGPU-Sim PTX: ... done pre-decoding instructions for '_Z6KernelP4NodePiPbS2_S2_S1_i'.
GPGPU-Sim PTX: instruction assembly for function '_Z7Kernel2PbS_S_S_i'...   done.
GPGPU-Sim PTX: finding reconvergence points for '_Z7Kernel2PbS_S_S_i'...
GPGPU-Sim PTX: Finding dominators for '_Z7Kernel2PbS_S_S_i'...
GPGPU-Sim PTX: Finding immediate dominators for '_Z7Kernel2PbS_S_S_i'...
GPGPU-Sim PTX: Finding postdominators for '_Z7Kernel2PbS_S_S_i'...
GPGPU-Sim PTX: Finding immediate postdominators for '_Z7Kernel2PbS_S_S_i'...
GPGPU-Sim PTX: pre-decoding instructions for '_Z7Kernel2PbS_S_S_i'...
GPGPU-Sim PTX: reconvergence points for _Z7Kernel2PbS_S_S_i...
GPGPU-Sim PTX:  1 (potential) branch divergence @  PC=0x240 (_1.ptx:129) @%p1 bra BB1_3;
GPGPU-Sim PTX:    immediate post dominator      @  PC=0x2d0 (_1.ptx:151) ret;
GPGPU-Sim PTX:  2 (potential) branch divergence @  PC=0x270 (_1.ptx:136) @%p2 bra BB1_3;
GPGPU-Sim PTX:    immediate post dominator      @  PC=0x2d0 (_1.ptx:151) ret;
GPGPU-Sim PTX: ... end of reconvergence points for _Z7Kernel2PbS_S_S_i
GPGPU-Sim PTX: ... done pre-decoding instructions for '_Z7Kernel2PbS_S_S_i'.
GPGPU-Sim PTX: finished parsing EMBEDDED .ptx file _1.ptx
Adding _cuobjdump_1.ptx with cubin handle 1
GPGPU-Sim PTX: extracting embedded .ptx to temporary file "_ptx_Ur14iw"
Running: cat _ptx_Ur14iw | sed 's/.version 1.5/.version 1.4/' | sed 's/, texmode_independent//' | sed 's/\(\.extern \.const\[1\] .b8 \w\+\)\[\]/\1\[1\]/' | sed 's/const\[.\]/const\[0\]/g' > _ptx2_HcuPlh
GPGPU-Sim PTX: generating ptxinfo using "$CUDA_INSTALL_PATH/bin/ptxas --gpu-name=sm_20 -v _ptx2_HcuPlh --output-file  /dev/null 2> _ptx_Ur14iwinfo"
GPGPU-Sim PTX: Kernel '_Z7Kernel2PbS_S_S_i' : regs=12, lmem=0, smem=0, cmem=68
GPGPU-Sim PTX: Kernel '_Z6KernelP4NodePiPbS2_S2_S1_i' : regs=15, lmem=0, smem=0, cmem=84
GPGPU-Sim PTX: removing ptxinfo using "rm -f _ptx_Ur14iw _ptx2_HcuPlh _ptx_Ur14iwinfo"
GPGPU-Sim PTX: loading globals with explicit initializers... 
GPGPU-Sim PTX: finished loading globals (0 bytes total).
GPGPU-Sim PTX: loading constants with explicit initializers...  done.
GPGPU-Sim PTX: __cudaRegisterFunction _Z6KernelP4NodePiPbS2_S2_S1_i : hostFun 0x0x401519, fat_cubin_handle = 1
Reading File
Read File
Copied Everything to GPU memory
Start traversing the tree

GPGPU-Sim PTX: cudaLaunch for 0x0x401519 (mode=performance simulation) on stream 0
GPGPU-Sim PTX: pushing kernel '_Z6KernelP4NodePiPbS2_S2_S1_i' to stream 0, gridDim= (128,1,1) blockDim = (512,1,1) 
GPGPU-Sim uArch: Shader 1 bind to kernel 1 '_Z6KernelP4NodePiPbS2_S2_S1_i'
GPGPU-Sim uArch: CTA/core = 4, limited by: threads
GPGPU-Sim uArch: Shader 2 bind to kernel 1 '_Z6KernelP4NodePiPbS2_S2_S1_i'
GPGPU-Sim uArch: Shader 3 bind to kernel 1 '_Z6KernelP4NodePiPbS2_S2_S1_i'
GPGPU-Sim uArch: Shader 4 bind to kernel 1 '_Z6KernelP4NodePiPbS2_S2_S1_i'
GPGPU-Sim uArch: Shader 5 bind to kernel 1 '_Z6KernelP4NodePiPbS2_S2_S1_i'
GPGPU-Sim uArch: Shader 6 bind to kernel 1 '_Z6KernelP4NodePiPbS2_S2_S1_i'
GPGPU-Sim uArch: Shader 7 bind to kernel 1 '_Z6KernelP4NodePiPbS2_S2_S1_i'
GPGPU-Sim uArch: Shader 8 bind to kernel 1 '_Z6KernelP4NodePiPbS2_S2_S1_i'
GPGPU-Sim uArch: Shader 9 bind to kernel 1 '_Z6KernelP4NodePiPbS2_S2_S1_i'
GPGPU-Sim uArch: Shader 10 bind to kernel 1 '_Z6KernelP4NodePiPbS2_S2_S1_i'
GPGPU-Sim uArch: Shader 11 bind to kernel 1 '_Z6KernelP4NodePiPbS2_S2_S1_i'
GPGPU-Sim uArch: Shader 12 bind to kernel 1 '_Z6KernelP4NodePiPbS2_S2_S1_i'
GPGPU-Sim uArch: Shader 13 bind to kernel 1 '_Z6KernelP4NodePiPbS2_S2_S1_i'
GPGPU-Sim uArch: Shader 14 bind to kernel 1 '_Z6KernelP4NodePiPbS2_S2_S1_i'
GPGPU-Sim uArch: Shader 15 bind to kernel 1 '_Z6KernelP4NodePiPbS2_S2_S1_i'
GPGPU-Sim uArch: Shader 16 bind to kernel 1 '_Z6KernelP4NodePiPbS2_S2_S1_i'
GPGPU-Sim uArch: Shader 17 bind to kernel 1 '_Z6KernelP4NodePiPbS2_S2_S1_i'
GPGPU-Sim uArch: Shader 18 bind to kernel 1 '_Z6KernelP4NodePiPbS2_S2_S1_i'
GPGPU-Sim uArch: Shader 19 bind to kernel 1 '_Z6KernelP4NodePiPbS2_S2_S1_i'
GPGPU-Sim uArch: Shader 20 bind to kernel 1 '_Z6KernelP4NodePiPbS2_S2_S1_i'
GPGPU-Sim uArch: Shader 21 bind to kernel 1 '_Z6KernelP4NodePiPbS2_S2_S1_i'
GPGPU-Sim uArch: Shader 22 bind to kernel 1 '_Z6KernelP4NodePiPbS2_S2_S1_i'
GPGPU-Sim uArch: Shader 23 bind to kernel 1 '_Z6KernelP4NodePiPbS2_S2_S1_i'
GPGPU-Sim uArch: Shader 24 bind to kernel 1 '_Z6KernelP4NodePiPbS2_S2_S1_i'
GPGPU-Sim uArch: Shader 25 bind to kernel 1 '_Z6KernelP4NodePiPbS2_S2_S1_i'
GPGPU-Sim uArch: Shader 26 bind to kernel 1 '_Z6KernelP4NodePiPbS2_S2_S1_i'
GPGPU-Sim uArch: Shader 27 bind to kernel 1 '_Z6KernelP4NodePiPbS2_S2_S1_i'
GPGPU-Sim uArch: Shader 0 bind to kernel 1 '_Z6KernelP4NodePiPbS2_S2_S1_i'
Destroy streams for kernel 1: size 0
kernel_name = _Z6KernelP4NodePiPbS2_S2_S1_i 
kernel_launch_uid = 1 
gpu_sim_cycle = 17854
gpu_sim_insn = 1245376
gpu_ipc =      69.7533
gpu_tot_sim_cycle = 240258
gpu_tot_sim_insn = 1245376
gpu_tot_ipc =       5.1835
gpu_tot_issued_cta = 128
max_total_param_size = 0
gpu_stall_dramfull = 35
gpu_stall_icnt2sh    = 2240
partiton_reqs_in_parallel = 392753
partiton_reqs_in_parallel_total    = 0
partiton_level_parallism =      21.9980
partiton_level_parallism_total  =       1.6347
partiton_reqs_in_parallel_util = 392753
partiton_reqs_in_parallel_util_total    = 0
gpu_sim_cycle_parition_util = 17854
gpu_tot_sim_cycle_parition_util    = 0
partiton_level_parallism_util =      21.9980
partiton_level_parallism_util_total  =      21.9980
partiton_replys_in_parallel = 2220
partiton_replys_in_parallel_total    = 0
L2_BW  =      11.7856 GB/Sec
L2_BW_total  =       0.8758 GB/Sec
gpu_total_sim_rate=83025

========= Core cache stats =========
L1I_cache:
	L1I_total_cache_accesses = 22632
	L1I_total_cache_misses = 2671
	L1I_total_cache_miss_rate = 0.1180
	L1I_total_cache_pending_hits = 0
	L1I_total_cache_reservation_fails = 6846
L1D_cache:
	L1D_cache_core[0]: Access = 0, Miss = 0, Miss_rate = -nan, Pending_hits = 0, Reservation_fails = 0
	L1D_cache_core[1]: Access = 0, Miss = 0, Miss_rate = -nan, Pending_hits = 0, Reservation_fails = 0
	L1D_cache_core[2]: Access = 0, Miss = 0, Miss_rate = -nan, Pending_hits = 0, Reservation_fails = 0
	L1D_cache_core[3]: Access = 0, Miss = 0, Miss_rate = -nan, Pending_hits = 0, Reservation_fails = 0
	L1D_cache_core[4]: Access = 0, Miss = 0, Miss_rate = -nan, Pending_hits = 0, Reservation_fails = 0
	L1D_cache_core[5]: Access = 0, Miss = 0, Miss_rate = -nan, Pending_hits = 0, Reservation_fails = 0
	L1D_cache_core[6]: Access = 0, Miss = 0, Miss_rate = -nan, Pending_hits = 0, Reservation_fails = 0
	L1D_cache_core[7]: Access = 0, Miss = 0, Miss_rate = -nan, Pending_hits = 0, Reservation_fails = 0
	L1D_cache_core[8]: Access = 0, Miss = 0, Miss_rate = -nan, Pending_hits = 0, Reservation_fails = 0
	L1D_cache_core[9]: Access = 0, Miss = 0, Miss_rate = -nan, Pending_hits = 0, Reservation_fails = 0
	L1D_cache_core[10]: Access = 0, Miss = 0, Miss_rate = -nan, Pending_hits = 0, Reservation_fails = 0
	L1D_cache_core[11]: Access = 0, Miss = 0, Miss_rate = -nan, Pending_hits = 0, Reservation_fails = 0
	L1D_cache_core[12]: Access = 0, Miss = 0, Miss_rate = -nan, Pending_hits = 0, Reservation_fails = 0
	L1D_cache_core[13]: Access = 0, Miss = 0, Miss_rate = -nan, Pending_hits = 0, Reservation_fails = 0
	L1D_cache_core[14]: Access = 0, Miss = 0, Miss_rate = -nan, Pending_hits = 0, Reservation_fails = 0
	L1D_cache_core[15]: Access = 0, Miss = 0, Miss_rate = -nan, Pending_hits = 0, Reservation_fails = 0
	L1D_cache_core[16]: Access = 0, Miss = 0, Miss_rate = -nan, Pending_hits = 0, Reservation_fails = 0
	L1D_cache_core[17]: Access = 0, Miss = 0, Miss_rate = -nan, Pending_hits = 0, Reservation_fails = 0
	L1D_cache_core[18]: Access = 0, Miss = 0, Miss_rate = -nan, Pending_hits = 0, Reservation_fails = 0
	L1D_cache_core[19]: Access = 0, Miss = 0, Miss_rate = -nan, Pending_hits = 0, Reservation_fails = 0
	L1D_cache_core[20]: Access = 0, Miss = 0, Miss_rate = -nan, Pending_hits = 0, Reservation_fails = 0
	L1D_cache_core[21]: Access = 0, Miss = 0, Miss_rate = -nan, Pending_hits = 0, Reservation_fails = 0
	L1D_cache_core[22]: Access = 0, Miss = 0, Miss_rate = -nan, Pending_hits = 0, Reservation_fails = 0
	L1D_cache_core[23]: Access = 0, Miss = 0, Miss_rate = -nan, Pending_hits = 0, Reservation_fails = 0
	L1D_cache_core[24]: Access = 0, Miss = 0, Miss_rate = -nan, Pending_hits = 0, Reservation_fails = 0
	L1D_cache_core[25]: Access = 0, Miss = 0, Miss_rate = -nan, Pending_hits = 0, Reservation_fails = 0
	L1D_cache_core[26]: Access = 0, Miss = 0, Miss_rate = -nan, Pending_hits = 0, Reservation_fails = 0
	L1D_cache_core[27]: Access = 0, Miss = 0, Miss_rate = -nan, Pending_hits = 0, Reservation_fails = 0
	L1D_total_cache_accesses = 0
	L1D_total_cache_misses = 0
	L1D_total_cache_pending_hits = 0
	L1D_total_cache_reservation_fails = 0
	L1D_cache_data_port_util = 0.000
	L1D_cache_fill_port_util = 0.000
L1C_cache:
	L1C_total_cache_accesses = 14336
	L1C_total_cache_misses = 1792
	L1C_total_cache_miss_rate = 0.1250
	L1C_total_cache_pending_hits = 0
	L1C_total_cache_reservation_fails = 4886
L1T_cache:
	L1T_total_cache_accesses = 0
	L1T_total_cache_misses = 0
	L1T_total_cache_pending_hits = 0
	L1T_total_cache_reservation_fails = 0

Total_core_cache_stats:
	Total_core_cache_stats_breakdown[GLOBAL_ACC_R][HIT] = 0
	Total_core_cache_stats_breakdown[GLOBAL_ACC_R][HIT_RESERVED] = 0
	Total_core_cache_stats_breakdown[GLOBAL_ACC_R][MISS] = 0
	Total_core_cache_stats_breakdown[GLOBAL_ACC_R][RESERVATION_FAIL] = 0
	Total_core_cache_stats_breakdown[LOCAL_ACC_R][HIT] = 0
	Total_core_cache_stats_breakdown[LOCAL_ACC_R][HIT_RESERVED] = 0
	Total_core_cache_stats_breakdown[LOCAL_ACC_R][MISS] = 0
	Total_core_cache_stats_breakdown[LOCAL_ACC_R][RESERVATION_FAIL] = 0
	Total_core_cache_stats_breakdown[CONST_ACC_R][HIT] = 12544
	Total_core_cache_stats_breakdown[CONST_ACC_R][HIT_RESERVED] = 0
	Total_core_cache_stats_breakdown[CONST_ACC_R][MISS] = 1792
	Total_core_cache_stats_breakdown[CONST_ACC_R][RESERVATION_FAIL] = 4886
	Total_core_cache_stats_breakdown[TEXTURE_ACC_R][HIT] = 0
	Total_core_cache_stats_breakdown[TEXTURE_ACC_R][HIT_RESERVED] = 0
	Total_core_cache_stats_breakdown[TEXTURE_ACC_R][MISS] = 0
	Total_core_cache_stats_breakdown[TEXTURE_ACC_R][RESERVATION_FAIL] = 0
	Total_core_cache_stats_breakdown[GLOBAL_ACC_W][HIT] = 0
	Total_core_cache_stats_breakdown[GLOBAL_ACC_W][HIT_RESERVED] = 0
	Total_core_cache_stats_breakdown[GLOBAL_ACC_W][MISS] = 0
	Total_core_cache_stats_breakdown[GLOBAL_ACC_W][RESERVATION_FAIL] = 0
	Total_core_cache_stats_breakdown[LOCAL_ACC_W][HIT] = 0
	Total_core_cache_stats_breakdown[LOCAL_ACC_W][HIT_RESERVED] = 0
	Total_core_cache_stats_breakdown[LOCAL_ACC_W][MISS] = 0
	Total_core_cache_stats_breakdown[LOCAL_ACC_W][RESERVATION_FAIL] = 0
	Total_core_cache_stats_breakdown[L1_WRBK_ACC][HIT] = 0
	Total_core_cache_stats_breakdown[L1_WRBK_ACC][HIT_RESERVED] = 0
	Total_core_cache_stats_breakdown[L1_WRBK_ACC][MISS] = 0
	Total_core_cache_stats_breakdown[L1_WRBK_ACC][RESERVATION_FAIL] = 0
	Total_core_cache_stats_breakdown[L2_WRBK_ACC][HIT] = 0
	Total_core_cache_stats_breakdown[L2_WRBK_ACC][HIT_RESERVED] = 0
	Total_core_cache_stats_breakdown[L2_WRBK_ACC][MISS] = 0
	Total_core_cache_stats_breakdown[L2_WRBK_ACC][RESERVATION_FAIL] = 0
	Total_core_cache_stats_breakdown[INST_ACC_R][HIT] = 19961
	Total_core_cache_stats_breakdown[INST_ACC_R][HIT_RESERVED] = 0
	Total_core_cache_stats_breakdown[INST_ACC_R][MISS] = 2671
	Total_core_cache_stats_breakdown[INST_ACC_R][RESERVATION_FAIL] = 6846
	Total_core_cache_stats_breakdown[L1_WR_ALLOC_R][HIT] = 0
	Total_core_cache_stats_breakdown[L1_WR_ALLOC_R][HIT_RESERVED] = 0
	Total_core_cache_stats_breakdown[L1_WR_ALLOC_R][MISS] = 0
	Total_core_cache_stats_breakdown[L1_WR_ALLOC_R][RESERVATION_FAIL] = 0
	Total_core_cache_stats_breakdown[L2_WR_ALLOC_R][HIT] = 0
	Total_core_cache_stats_breakdown[L2_WR_ALLOC_R][HIT_RESERVED] = 0
	Total_core_cache_stats_breakdown[L2_WR_ALLOC_R][MISS] = 0
	Total_core_cache_stats_breakdown[L2_WR_ALLOC_R][RESERVATION_FAIL] = 0
	Total_core_cache_stats_breakdown[CONST_ACC_R][TOTAL_ACCESS] = 14336
	Total_core_cache_stats_breakdown[INST_ACC_R][TOTAL_ACCESS] = 22632
Shader 0 warp_id issue ditsribution:
warp_id:
0, 1, 2, 3, 4, 5, 6, 7, 8, 9, 10, 11, 12, 13, 14, 15, 16, 17, 18, 19, 20, 21, 22, 23, 24, 25, 26, 27, 28, 29, 30, 31, 32, 33, 34, 35, 36, 37, 38, 39, 40, 41, 42, 43, 44, 45, 46, 47, 48, 49, 50, 51, 52, 53, 54, 55, 56, 57, 58, 59, 60, 61, 62, 63, 
distro:
46, 46, 45, 46, 45, 46, 45, 46, 46, 46, 46, 46, 46, 46, 46, 46, 23, 23, 23, 23, 23, 23, 23, 23, 23, 23, 23, 23, 23, 23, 23, 23, 23, 23, 23, 23, 23, 23, 23, 23, 23, 23, 23, 23, 23, 23, 23, 23, 23, 23, 23, 23, 23, 23, 23, 23, 23, 23, 23, 23, 23, 23, 23, 23, 
gpgpu_n_tot_thrd_icount = 1317216
gpgpu_n_tot_w_icount = 41163
gpgpu_n_stall_shd_mem = 5406
gpgpu_n_mem_read_local = 0
gpgpu_n_mem_write_local = 0
gpgpu_n_mem_read_global = 2090
gpgpu_n_mem_write_global = 17
gpgpu_n_mem_texture = 0
gpgpu_n_mem_const = 28
gpgpu_n_load_insn  = 65578
gpgpu_n_store_insn = 17
gpgpu_n_shmem_insn = 0
gpgpu_n_tex_insn = 0
gpgpu_n_const_mem_insn = 0
gpgpu_n_param_mem_insn = 458752
gpgpu_n_shmem_bkconflict = 0
gpgpu_n_cache_bkconflict = 0
gpgpu_n_intrawarp_mshr_merge = 0
gpgpu_n_cmem_portconflict = 4886
gpgpu_stall_shd_mem[c_mem][bk_conf] = 4886
gpgpu_stall_shd_mem[c_mem][mshr_rc] = 0
gpgpu_stall_shd_mem[c_mem][icnt_rc] = 0
gpgpu_stall_shd_mem[c_mem][data_port_stall] = 0
gpgpu_stall_shd_mem[t_mem][mshr_rc] = 0
gpgpu_stall_shd_mem[t_mem][icnt_rc] = 0
gpgpu_stall_shd_mem[t_mem][data_port_stall] = 0
gpgpu_stall_shd_mem[s_mem][bk_conf] = 0
gpgpu_stall_shd_mem[gl_mem][bk_conf] = 0
gpgpu_stall_shd_mem[gl_mem][coal_stall] = 0
gpgpu_stall_shd_mem[gl_mem][data_port_stall] = 0
gpgpu_stall_shd_mem[g_mem_ld][mshr_rc] = 0
gpgpu_stall_shd_mem[g_mem_ld][icnt_rc] = 520
gpgpu_stall_shd_mem[g_mem_ld][wb_icnt_rc] = 0
gpgpu_stall_shd_mem[g_mem_ld][wb_rsrv_fail] = 0
gpgpu_stall_shd_mem[g_mem_st][mshr_rc] = 0
gpgpu_stall_shd_mem[g_mem_st][icnt_rc] = 0
gpgpu_stall_shd_mem[g_mem_st][wb_icnt_rc] = 0
gpgpu_stall_shd_mem[g_mem_st][wb_rsrv_fail] = 0
gpgpu_stall_shd_mem[l_mem_ld][mshr_rc] = 0
gpgpu_stall_shd_mem[l_mem_ld][icnt_rc] = 0
gpgpu_stall_shd_mem[l_mem_ld][wb_icnt_rc] = 0
gpgpu_stall_shd_mem[l_mem_ld][wb_rsrv_fail] = 0
gpgpu_stall_shd_mem[l_mem_st][mshr_rc] = 0
gpgpu_stall_shd_mem[l_mem_st][icnt_rc] = 0
gpgpu_stall_shd_mem[l_mem_ld][wb_icnt_rc] = 0
gpgpu_stall_shd_mem[l_mem_ld][wb_rsrv_fail] = 0
gpu_reg_bank_conflict_stalls = 0
Warp Occupancy Distribution:
Stall:16064	W0_Idle:28076	W0_Scoreboard:356927	W1:203	W2:0	W3:0	W4:0	W5:0	W6:0	W7:0	W8:0	W9:0	W10:0	W11:0	W12:0	W13:0	W14:0	W15:0	W16:0	W17:0	W18:0	W19:0	W20:0	W21:0	W22:0	W23:0	W24:0	W25:0	W26:0	W27:0	W28:0	W29:0	W30:0	W31:0	W32:40960
traffic_breakdown_coretomem[CONST_ACC_R] = 224 {8:28,}
traffic_breakdown_coretomem[GLOBAL_ACC_R] = 16720 {8:2090,}
traffic_breakdown_coretomem[GLOBAL_ACC_W] = 680 {40:17,}
traffic_breakdown_coretomem[INST_ACC_R] = 680 {8:85,}
traffic_breakdown_memtocore[CONST_ACC_R] = 2016 {72:28,}
traffic_breakdown_memtocore[GLOBAL_ACC_R] = 83600 {40:2090,}
traffic_breakdown_memtocore[GLOBAL_ACC_W] = 136 {8:17,}
traffic_breakdown_memtocore[INST_ACC_R] = 11560 {136:85,}
maxmrqlatency = 74 
maxdqlatency = 0 
maxmflatency = 6486 
averagemflatency = 5230 
max_icnt2mem_latency = 6171 
max_icnt2sh_latency = 240257 
mrq_lat_table:157 	48 	53 	52 	105 	123 	22 	0 	0 	0 	0 	0 	0 	0 	0 	0 	0 	0 	0 	0 	0 	0 	0 	0 	0 	0 	0 	0 	0 	0 	0 	0 	
dq_lat_table:0 	0 	0 	0 	0 	0 	0 	0 	0 	0 	0 	0 	0 	0 	0 	0 	0 	0 	0 	0 	0 	0 	0 	0 	0 	0 	0 	0 	0 	0 	0 	0 	
mf_lat_table:0 	0 	0 	0 	0 	0 	0 	64 	26 	245 	13 	9 	1778 	0 	0 	0 	0 	0 	0 	0 	0 	0 	0 	0 	0 	0 	0 	0 	0 	0 	0 	0 	
icnt2mem_lat_table:0 	0 	111 	21 	17 	0 	9 	43 	126 	101 	6 	9 	1777 	0 	0 	0 	0 	0 	0 	0 	0 	0 	0 	0 	
icnt2sh_lat_table:0 	0 	629 	1009 	478 	2 	0 	0 	0 	0 	0 	0 	0 	0 	0 	0 	0 	17 	0 	0 	0 	0 	0 	0 	
mf_lat_pw_table:0 	0 	0 	0 	0 	0 	0 	8 	4 	5 	5 	6 	4 	0 	0 	0 	0 	0 	0 	0 	0 	0 	0 	0 	0 	0 	0 	0 	0 	0 	0 	0 	
maximum concurrent accesses to same row:
dram[0]:         1         0         0         0         0         0         0         0         0         0         0         0         0         0         0         0 
dram[1]:         0         0         0         0         0         0         0         0         0         0         0         0         0         0         0         0 
dram[2]:         0         0         0         0         0         0         0         0         0         0         0         0         0         0         0         0 
dram[3]:         0         0         0         0         0         0         1         0         0         0         0         0         0         0         0         0 
dram[4]:         0         0         0         0         0         0         0         0         0         0         0         0         0         0         1        14 
dram[5]:         0         0         0         0         0         0         0         0         0         0         0         0         0         0         3         1 
dram[6]:         0         0         0         0         0         0         0         0         0         0         0         0         0         0         0         0 
dram[7]:         0         0         0         0         0         0         0         0         0         0         0         0         0         0         0         0 
dram[8]:         0         0         0         0         0         0         0         0         0         0         0         0         0         0         0         0 
dram[9]:         0         0         0         0         0         0         0         0         0         0         0         0         0         0         0         0 
dram[10]:         0         0         0         0         0         0         0         0         0         0         0         0         0         0        15         0 
maximum service time to same row:
dram[0]:      7239      7242         0         0      8713         0         0         0         0         0         0         0         0         0      6217      6219 
dram[1]:      7237      7240     17753         0     12203         0         0         0         0         0         0     17087         0         0      6221      6224 
dram[2]:      7241      7245         0         0         0         0         0         0         0         0         0         0         0         0      6217      6219 
dram[3]:      7247      7253         0     11430         0         0      5957      9868         0         0         0         0         0         0      6221      6226 
dram[4]:      7243      7250     16355         0     17321         0         0         0         0         0         0         0         0         0      1175     10598 
dram[5]:      7254      7260     13554     16999         0         0     17841         0         0         0         0         0         0         0      3810      2011 
dram[6]:      7234      7237         0         0         0         0         0     10121         0         0         0         0         0         0      5199      6217 
dram[7]:      7239      7243     14665         0     15820         0         0         0     16341         0         0         0         0         0      3933      4692 
dram[8]:      7246      7249         0         0         0     11683     13020         0         0     15567         0         0         0         0      6217      6219 
dram[9]:      7253      7254         0         0      8093         0         0         0         0         0         0         0         0         0      6219      6217 
dram[10]:      7246      7246         0         0     14130         0         0         0         0         0         0         0         0         0      7319      6223 
average row accesses per activate:
dram[0]: 10.000000  9.000000      -nan      -nan  1.000000      -nan      -nan      -nan      -nan      -nan      -nan      -nan      -nan      -nan 14.000000 14.000000 
dram[1]:  9.000000  9.000000  2.000000      -nan  2.000000      -nan      -nan      -nan      -nan      -nan      -nan  2.000000      -nan      -nan 14.000000 14.000000 
dram[2]:  9.000000  9.000000      -nan      -nan      -nan      -nan      -nan      -nan      -nan      -nan      -nan      -nan      -nan      -nan 14.000000 14.000000 
dram[3]:  9.000000  9.000000      -nan  2.000000      -nan      -nan  1.000000  2.000000      -nan      -nan      -nan      -nan      -nan      -nan 14.000000 14.000000 
dram[4]:  9.000000  9.000000  2.000000      -nan  1.000000      -nan      -nan      -nan      -nan      -nan      -nan      -nan      -nan      -nan  7.500000  5.666667 
dram[5]:  9.000000 11.000000  2.000000  2.000000      -nan      -nan  2.000000      -nan      -nan      -nan      -nan      -nan      -nan      -nan  5.333333  8.000000 
dram[6]: 11.000000  9.000000      -nan      -nan      -nan      -nan      -nan  1.000000      -nan      -nan      -nan      -nan      -nan      -nan 15.000000 15.000000 
dram[7]:  9.000000  9.000000  2.000000      -nan  1.000000      -nan      -nan      -nan  2.000000      -nan      -nan      -nan      -nan      -nan 15.000000 15.000000 
dram[8]:  8.000000  8.000000      -nan      -nan      -nan  2.000000  1.000000      -nan      -nan  2.000000      -nan      -nan      -nan      -nan 15.000000 15.000000 
dram[9]:  8.000000  8.000000      -nan      -nan  1.000000      -nan      -nan      -nan      -nan      -nan      -nan      -nan      -nan      -nan 15.000000 15.000000 
dram[10]:  8.000000  8.000000      -nan      -nan  1.000000      -nan      -nan      -nan      -nan      -nan      -nan      -nan      -nan      -nan  8.500000 15.000000 
average row locality = 560/73 = 7.671233
number of total memory accesses made:
dram[0]:         0         0         0         0         0         0         0         0         0         0         0         0         0         0         0         0 
dram[1]:         0         0         0         0         0         0         0         0         0         0         0         0         0         0         0         0 
dram[2]:         0         0         0         0         0         0         0         0         0         0         0         0         0         0         0         0 
dram[3]:         0         0         0         0         0         0         0         0         0         0         0         0         0         0         0         0 
dram[4]:         0         0         0         0         0         0         0         0         0         0         0         0         0         0         0         0 
dram[5]:         0         0         0         0         0         0         0         0         0         0         0         0         0         0         0         0 
dram[6]:         0         0         0         0         0         0         0         0         0         0         0         0         0         0         0         0 
dram[7]:         0         0         0         0         0         0         0         0         0         0         0         0         0         0         0         0 
dram[8]:         0         0         0         0         0         0         0         0         0         0         0         0         0         0         0         0 
dram[9]:         0         0         0         0         0         0         0         0         0         0         0         0         0         0         0         0 
dram[10]:         0         0         0         0         0         0         0         0         0         0         0         0         0         0         0         0 
total accesses: 0
min_bank_accesses = 0!
min_chip_accesses = 0!
number of total read accesses:
dram[0]:        10         9         0         0         1         0         0         0         0         0         0         0         0         0        14        14 
dram[1]:         9         9         1         0         1         0         0         0         0         0         0         1         0         0        14        14 
dram[2]:         9         9         0         0         0         0         0         0         0         0         0         0         0         0        14        14 
dram[3]:         9         9         0         1         0         0         2         1         0         0         0         0         0         0        14        14 
dram[4]:         9         9         1         0         1         0         0         0         0         0         0         0         0         0        15        16 
dram[5]:         9        10         1         1         0         0         1         0         0         0         0         0         0         0        16        16 
dram[6]:        10         9         0         0         0         0         0         1         0         0         0         0         0         0        15        15 
dram[7]:         9         9         1         0         1         0         0         0         1         0         0         0         0         0        15        15 
dram[8]:         8         8         0         0         0         2         1         0         0         1         0         0         0         0        15        15 
dram[9]:         8         8         0         0         1         0         0         0         0         0         0         0         0         0        15        15 
dram[10]:         8         8         0         0         1         0         0         0         0         0         0         0         0         0        16        15 
total reads: 544
min_bank_accesses = 0!
chip skew: 54/46 = 1.17
number of total write accesses:
dram[0]:         0         0         0         0         0         0         0         0         0         0         0         0         0         0         0         0 
dram[1]:         0         0         1         0         1         0         0         0         0         0         0         1         0         0         0         0 
dram[2]:         0         0         0         0         0         0         0         0         0         0         0         0         0         0         0         0 
dram[3]:         0         0         0         1         0         0         0         1         0         0         0         0         0         0         0         0 
dram[4]:         0         0         1         0         0         0         0         0         0         0         0         0         0         0         0         1 
dram[5]:         0         1         1         1         0         0         1         0         0         0         0         0         0         0         0         0 
dram[6]:         1         0         0         0         0         0         0         0         0         0         0         0         0         0         0         0 
dram[7]:         0         0         1         0         0         0         0         0         1         0         0         0         0         0         0         0 
dram[8]:         0         0         0         0         0         0         0         0         0         1         0         0         0         0         0         0 
dram[9]:         0         0         0         0         0         0         0         0         0         0         0         0         0         0         0         0 
dram[10]:         0         0         0         0         0         0         0         0         0         0         0         0         0         0         1         0 
total reads: 16
min_bank_accesses = 0!
min_chip_accesses = 0!
average mf latency per bank:
dram[0]:      16679     17892    none      none        1516    none      none      none      none      none      none      none      none      none       24141     24186
dram[1]:      17746     17805       119    none         170    none      none      none      none      none      none         170    none      none       24142     24189
dram[2]:      17731     17797    none      none      none      none      none      none      none      none      none      none      none      none       24119     24180
dram[3]:      17724     17755    none         558    none      none        3722       560    none      none      none      none      none      none       24324     24404
dram[4]:      17716     17770       170    none         250    none      none      none      none      none      none      none      none      none       21654     19676
dram[5]:      17734     14602       170       119    none      none         170    none      none      none      none      none      none      none       21744     22300
dram[6]:      14705     17776    none      none      none      none      none        1048    none      none      none      none      none      none       24021     24216
dram[7]:      17751     17831       170    none        1186    none      none      none         170    none      none      none      none      none       23953     24038
dram[8]:      19702     19712    none      none      none         650       833    none      none         629    none      none      none      none       24138     24204
dram[9]:      16951     17009    none      none         606    none      none      none      none      none      none      none      none      none       24133     24208
dram[10]:      16982     17039    none      none         606    none      none      none      none      none      none      none      none      none       21392     24289
maximum mf latency per bank:
dram[0]:       6422      6434         0         0       606         0         0         0         0         0         0         0         0         0      6397      6407
dram[1]:       6398      6414       239         0       341         0         0         0         0         0         0       341         0         0      6393      6417
dram[2]:       6392      6420         0         0         0         0         0         0         0         0         0         0         0         0      6390      6413
dram[3]:       6415      6428         0      1116         0         0      3253      1120         0         0         0         0         0         0      6397      6427
dram[4]:       6423      6422       341         0       250         0         0         0         0         0         0         0         0         0      6411      6448
dram[5]:       6462      6459       341       239         0         0       341         0         0         0         0         0         0         0      6419      6442
dram[6]:       6467      6486         0         0         0         0         0      1048         0         0         0         0         0         0      6402      6437
dram[7]:       6458      6484       341         0      1186         0         0         0       341         0         0         0         0         0      6404      6432
dram[8]:       6419      6418         0         0         0      1058       833         0         0      1258         0         0         0         0      6403      6437
dram[9]:       6405      6430         0         0       606         0         0         0         0         0         0         0         0         0      6399      6428
dram[10]:       6412      6428         0         0       606         0         0         0         0         0         0         0         0         0      6394      6428
Memory Partition 0: 
Cache L2_bank_000:
MSHR contents

Cache L2_bank_001:
MSHR contents

In Dram Latency Queue (total = 0): 
DRAM[0]: 16 bks, busW=4 BL=8 CL=12, tRRD=2 tCCD=6, tRCD=12 tRAS=28 tRP=12 tRC=40
n_cmd=33151 n_nop=32952 n_act=6 n_pre=1 n_req=48 n_rd=192 n_write=0 bw_util=0.01158
n_activity=498 dram_eff=0.7711
bk0: 40a 32984i bk1: 36a 32937i bk2: 0a 33150i bk3: 0a 33152i bk4: 4a 33132i bk5: 0a 33150i bk6: 0a 33150i bk7: 0a 33150i bk8: 0a 33150i bk9: 0a 33151i bk10: 0a 33151i bk11: 0a 33151i bk12: 0a 33152i bk13: 0a 33152i bk14: 56a 33022i bk15: 56a 32933i 
dram_util_bins: 0 0 0 0 0 0 0 0 0 0
dram_eff_bins: 0 0 0 0 0 0 0 0 0 0
mrqq: max=8 avg=0.0408736
Memory Partition 1: 
Cache L2_bank_002:
MSHR contents

Cache L2_bank_003:
MSHR contents

In Dram Latency Queue (total = 0): 
DRAM[1]: 16 bks, busW=4 BL=8 CL=12, tRRD=2 tCCD=6, tRCD=12 tRAS=28 tRP=12 tRC=40
n_cmd=33151 n_nop=32945 n_act=7 n_pre=0 n_req=52 n_rd=196 n_write=3 bw_util=0.01201
n_activity=538 dram_eff=0.7398
bk0: 36a 32994i bk1: 36a 32935i bk2: 4a 33126i bk3: 0a 33151i bk4: 4a 33125i bk5: 0a 33149i bk6: 0a 33149i bk7: 0a 33150i bk8: 0a 33151i bk9: 0a 33151i bk10: 0a 33151i bk11: 4a 33126i bk12: 0a 33150i bk13: 0a 33151i bk14: 56a 33022i bk15: 56a 32938i 
dram_util_bins: 0 0 0 0 0 0 0 0 0 0
dram_eff_bins: 0 0 0 0 0 0 0 0 0 0
mrqq: max=8 avg=0.0463938
Memory Partition 2: 
Cache L2_bank_004:
MSHR contents

Cache L2_bank_005:
MSHR contents

In Dram Latency Queue (total = 0): 
DRAM[2]: 16 bks, busW=4 BL=8 CL=12, tRRD=2 tCCD=6, tRCD=12 tRAS=28 tRP=12 tRC=40
n_cmd=33151 n_nop=32963 n_act=4 n_pre=0 n_req=46 n_rd=184 n_write=0 bw_util=0.0111
n_activity=418 dram_eff=0.8804
bk0: 36a 32999i bk1: 36a 32942i bk2: 0a 33150i bk3: 0a 33151i bk4: 0a 33151i bk5: 0a 33151i bk6: 0a 33151i bk7: 0a 33151i bk8: 0a 33151i bk9: 0a 33151i bk10: 0a 33151i bk11: 0a 33151i bk12: 0a 33151i bk13: 0a 33152i bk14: 56a 33024i bk15: 56a 32935i 
dram_util_bins: 0 0 0 0 0 0 0 0 0 0
dram_eff_bins: 0 0 0 0 0 0 0 0 0 0
mrqq: max=10 avg=0.0491991
Memory Partition 3: 
Cache L2_bank_006:
MSHR contents

Cache L2_bank_007:
MSHR contents

In Dram Latency Queue (total = 0): 
DRAM[3]: 16 bks, busW=4 BL=8 CL=12, tRRD=2 tCCD=6, tRCD=12 tRAS=28 tRP=12 tRC=40
n_cmd=33151 n_nop=32940 n_act=8 n_pre=1 n_req=52 n_rd=200 n_write=2 bw_util=0.01219
n_activity=592 dram_eff=0.6824
bk0: 36a 32995i bk1: 36a 32941i bk2: 0a 33150i bk3: 4a 33126i bk4: 0a 33151i bk5: 0a 33151i bk6: 8a 33100i bk7: 4a 33123i bk8: 0a 33149i bk9: 0a 33149i bk10: 0a 33151i bk11: 0a 33151i bk12: 0a 33151i bk13: 0a 33152i bk14: 56a 33023i bk15: 56a 32935i 
dram_util_bins: 0 0 0 0 0 0 0 0 0 0
dram_eff_bins: 0 0 0 0 0 0 0 0 0 0
mrqq: max=12 avg=0.0614763
Memory Partition 4: 
Cache L2_bank_008:
MSHR contents

Cache L2_bank_009:
MSHR contents

In Dram Latency Queue (total = 0): 
DRAM[4]: 16 bks, busW=4 BL=8 CL=12, tRRD=2 tCCD=6, tRCD=12 tRAS=28 tRP=12 tRC=40
n_cmd=33151 n_nop=32933 n_act=9 n_pre=3 n_req=53 n_rd=204 n_write=2 bw_util=0.01243
n_activity=698 dram_eff=0.5903
bk0: 36a 32985i bk1: 36a 32935i bk2: 4a 33124i bk3: 0a 33148i bk4: 4a 33131i bk5: 0a 33150i bk6: 0a 33151i bk7: 0a 33151i bk8: 0a 33151i bk9: 0a 33151i bk10: 0a 33152i bk11: 0a 33152i bk12: 0a 33152i bk13: 0a 33154i bk14: 60a 33002i bk15: 64a 32865i 
dram_util_bins: 0 0 0 0 0 0 0 0 0 0
dram_eff_bins: 0 0 0 0 0 0 0 0 0 0
mrqq: max=12 avg=0.0572833
Memory Partition 5: 
Cache L2_bank_010:
MSHR contents
MSHR: tag=0x8050a400, atomic=0 1 entries : 0x7f232212b320 :  mf: uid= 50823, sid01:w00, part=5, addr=0x8050a440, load , size=32, unknown  status = IN_PARTITION_DRAM (240257), 

Cache L2_bank_011:
MSHR contents

In Dram Latency Queue (total = 0): 
DRAM[5]: 16 bks, busW=4 BL=8 CL=12, tRRD=2 tCCD=6, tRCD=12 tRAS=28 tRP=12 tRC=40
n_cmd=33151 n_nop=32919 n_act=10 n_pre=3 n_req=58 n_rd=215 n_write=4 bw_util=0.01321
n_activity=724 dram_eff=0.605
bk0: 36a 33012i bk1: 40a 32936i bk2: 4a 33123i bk3: 4a 33124i bk4: 0a 33149i bk5: 0a 33150i bk6: 3a 33127i bk7: 0a 33149i bk8: 0a 33150i bk9: 0a 33150i bk10: 0a 33150i bk11: 0a 33153i bk12: 0a 33153i bk13: 0a 33155i bk14: 64a 32971i bk15: 64a 32897i 
dram_util_bins: 0 0 0 0 0 0 0 0 0 0
dram_eff_bins: 0 0 0 0 0 0 0 0 0 0
mrqq: max=10 avg=0.0501041
Memory Partition 6: 
Cache L2_bank_012:
MSHR contents

Cache L2_bank_013:
MSHR contents

In Dram Latency Queue (total = 0): 
DRAM[6]: 16 bks, busW=4 BL=8 CL=12, tRRD=2 tCCD=6, tRCD=12 tRAS=28 tRP=12 tRC=40
n_cmd=33151 n_nop=32945 n_act=5 n_pre=0 n_req=51 n_rd=200 n_write=1 bw_util=0.01213
n_activity=521 dram_eff=0.7716
bk0: 40a 32953i bk1: 36a 32912i bk2: 0a 33150i bk3: 0a 33152i bk4: 0a 33152i bk5: 0a 33152i bk6: 0a 33152i bk7: 4a 33132i bk8: 0a 33150i bk9: 0a 33150i bk10: 0a 33150i bk11: 0a 33150i bk12: 0a 33150i bk13: 0a 33152i bk14: 60a 33015i bk15: 60a 32924i 
dram_util_bins: 0 0 0 0 0 0 0 0 0 0
dram_eff_bins: 0 0 0 0 0 0 0 0 0 0
mrqq: max=12 avg=0.057223
Memory Partition 7: 
Cache L2_bank_014:
MSHR contents

Cache L2_bank_015:
MSHR contents

In Dram Latency Queue (total = 0): 
DRAM[7]: 16 bks, busW=4 BL=8 CL=12, tRRD=2 tCCD=6, tRCD=12 tRAS=28 tRP=12 tRC=40
n_cmd=33151 n_nop=32938 n_act=7 n_pre=0 n_req=53 n_rd=204 n_write=2 bw_util=0.01243
n_activity=598 dram_eff=0.689
bk0: 36a 32980i bk1: 36a 32924i bk2: 4a 33125i bk3: 0a 33149i bk4: 4a 33131i bk5: 0a 33150i bk6: 0a 33151i bk7: 0a 33151i bk8: 4a 33125i bk9: 0a 33149i bk10: 0a 33150i bk11: 0a 33150i bk12: 0a 33152i bk13: 0a 33153i bk14: 60a 33017i bk15: 60a 32928i 
dram_util_bins: 0 0 0 0 0 0 0 0 0 0
dram_eff_bins: 0 0 0 0 0 0 0 0 0 0
mrqq: max=13 avg=0.063618
Memory Partition 8: 
Cache L2_bank_016:
MSHR contents

Cache L2_bank_017:
MSHR contents

In Dram Latency Queue (total = 0): 
DRAM[8]: 16 bks, busW=4 BL=8 CL=12, tRRD=2 tCCD=6, tRCD=12 tRAS=28 tRP=12 tRC=40
n_cmd=33151 n_nop=32943 n_act=7 n_pre=0 n_req=51 n_rd=200 n_write=1 bw_util=0.01213
n_activity=548 dram_eff=0.7336
bk0: 32a 33000i bk1: 32a 32950i bk2: 0a 33149i bk3: 0a 33151i bk4: 0a 33152i bk5: 8a 33125i bk6: 4a 33131i bk7: 0a 33150i bk8: 0a 33151i bk9: 4a 33126i bk10: 0a 33150i bk11: 0a 33150i bk12: 0a 33151i bk13: 0a 33152i bk14: 60a 33015i bk15: 60a 32910i 
dram_util_bins: 0 0 0 0 0 0 0 0 0 0
dram_eff_bins: 0 0 0 0 0 0 0 0 0 0
mrqq: max=12 avg=0.05484
Memory Partition 9: 
Cache L2_bank_018:
MSHR contents

Cache L2_bank_019:
MSHR contents

In Dram Latency Queue (total = 0): 
DRAM[9]: 16 bks, busW=4 BL=8 CL=12, tRRD=2 tCCD=6, tRCD=12 tRAS=28 tRP=12 tRC=40
n_cmd=33151 n_nop=32958 n_act=5 n_pre=0 n_req=47 n_rd=188 n_write=0 bw_util=0.01134
n_activity=450 dram_eff=0.8356
bk0: 32a 33020i bk1: 32a 32959i bk2: 0a 33151i bk3: 0a 33151i bk4: 4a 33131i bk5: 0a 33150i bk6: 0a 33150i bk7: 0a 33150i bk8: 0a 33151i bk9: 0a 33151i bk10: 0a 33151i bk11: 0a 33151i bk12: 0a 33151i bk13: 0a 33153i bk14: 60a 33009i bk15: 60a 32915i 
dram_util_bins: 0 0 0 0 0 0 0 0 0 0
dram_eff_bins: 0 0 0 0 0 0 0 0 0 0
mrqq: max=11 avg=0.0517631
Memory Partition 10: 
Cache L2_bank_020:
MSHR contents

Cache L2_bank_021:
MSHR contents

In Dram Latency Queue (total = 0): 
DRAM[10]: 16 bks, busW=4 BL=8 CL=12, tRRD=2 tCCD=6, tRCD=12 tRAS=28 tRP=12 tRC=40
n_cmd=33151 n_nop=32951 n_act=6 n_pre=1 n_req=49 n_rd=192 n_write=1 bw_util=0.01164
n_activity=510 dram_eff=0.7569
bk0: 32a 32998i bk1: 32a 32945i bk2: 0a 33150i bk3: 0a 33150i bk4: 4a 33130i bk5: 0a 33150i bk6: 0a 33150i bk7: 0a 33150i bk8: 0a 33150i bk9: 0a 33152i bk10: 0a 33152i bk11: 0a 33152i bk12: 0a 33152i bk13: 0a 33154i bk14: 64a 32978i bk15: 60a 32918i 
dram_util_bins: 0 0 0 0 0 0 0 0 0 0
dram_eff_bins: 0 0 0 0 0 0 0 0 0 0
mrqq: max=9 avg=0.0464541

========= L2 cache stats =========
L2_cache_bank[0]: Access = 128, Miss = 25, Miss_rate = 0.195, Pending_hits = 96, Reservation_fails = 0
L2_cache_bank[1]: Access = 92, Miss = 23, Miss_rate = 0.250, Pending_hits = 69, Reservation_fails = 0
L2_cache_bank[2]: Access = 94, Miss = 25, Miss_rate = 0.266, Pending_hits = 69, Reservation_fails = 0
L2_cache_bank[3]: Access = 93, Miss = 24, Miss_rate = 0.258, Pending_hits = 69, Reservation_fails = 0
L2_cache_bank[4]: Access = 92, Miss = 23, Miss_rate = 0.250, Pending_hits = 69, Reservation_fails = 0
L2_cache_bank[5]: Access = 92, Miss = 23, Miss_rate = 0.250, Pending_hits = 69, Reservation_fails = 0
L2_cache_bank[6]: Access = 118, Miss = 25, Miss_rate = 0.212, Pending_hits = 69, Reservation_fails = 0
L2_cache_bank[7]: Access = 94, Miss = 25, Miss_rate = 0.266, Pending_hits = 69, Reservation_fails = 0
L2_cache_bank[8]: Access = 122, Miss = 26, Miss_rate = 0.213, Pending_hits = 93, Reservation_fails = 0
L2_cache_bank[9]: Access = 121, Miss = 25, Miss_rate = 0.207, Pending_hits = 93, Reservation_fails = 0
L2_cache_bank[10]: Access = 100, Miss = 27, Miss_rate = 0.270, Pending_hits = 66, Reservation_fails = 0
L2_cache_bank[11]: Access = 126, Miss = 27, Miss_rate = 0.214, Pending_hits = 66, Reservation_fails = 0
L2_cache_bank[12]: Access = 97, Miss = 25, Miss_rate = 0.258, Pending_hits = 69, Reservation_fails = 0
L2_cache_bank[13]: Access = 97, Miss = 25, Miss_rate = 0.258, Pending_hits = 72, Reservation_fails = 0
L2_cache_bank[14]: Access = 99, Miss = 27, Miss_rate = 0.273, Pending_hits = 69, Reservation_fails = 0
L2_cache_bank[15]: Access = 96, Miss = 24, Miss_rate = 0.250, Pending_hits = 69, Reservation_fails = 0
L2_cache_bank[16]: Access = 93, Miss = 24, Miss_rate = 0.258, Pending_hits = 69, Reservation_fails = 0
L2_cache_bank[17]: Access = 95, Miss = 26, Miss_rate = 0.274, Pending_hits = 69, Reservation_fails = 0
L2_cache_bank[18]: Access = 93, Miss = 24, Miss_rate = 0.258, Pending_hits = 69, Reservation_fails = 0
L2_cache_bank[19]: Access = 92, Miss = 23, Miss_rate = 0.250, Pending_hits = 69, Reservation_fails = 0
L2_cache_bank[20]: Access = 94, Miss = 25, Miss_rate = 0.266, Pending_hits = 69, Reservation_fails = 0
L2_cache_bank[21]: Access = 92, Miss = 23, Miss_rate = 0.250, Pending_hits = 69, Reservation_fails = 0
L2_total_cache_accesses = 2220
L2_total_cache_misses = 544
L2_total_cache_miss_rate = 0.2450
L2_total_cache_pending_hits = 1590
L2_total_cache_reservation_fails = 0
L2_total_cache_breakdown:
	L2_cache_stats_breakdown[GLOBAL_ACC_R][HIT] = 58
	L2_cache_stats_breakdown[GLOBAL_ACC_R][HIT_RESERVED] = 1509
	L2_cache_stats_breakdown[GLOBAL_ACC_R][MISS] = 523
	L2_cache_stats_breakdown[GLOBAL_ACC_R][RESERVATION_FAIL] = 0
	L2_cache_stats_breakdown[LOCAL_ACC_R][HIT] = 0
	L2_cache_stats_breakdown[LOCAL_ACC_R][HIT_RESERVED] = 0
	L2_cache_stats_breakdown[LOCAL_ACC_R][MISS] = 0
	L2_cache_stats_breakdown[LOCAL_ACC_R][RESERVATION_FAIL] = 0
	L2_cache_stats_breakdown[CONST_ACC_R][HIT] = 0
	L2_cache_stats_breakdown[CONST_ACC_R][HIT_RESERVED] = 27
	L2_cache_stats_breakdown[CONST_ACC_R][MISS] = 1
	L2_cache_stats_breakdown[CONST_ACC_R][RESERVATION_FAIL] = 0
	L2_cache_stats_breakdown[TEXTURE_ACC_R][HIT] = 0
	L2_cache_stats_breakdown[TEXTURE_ACC_R][HIT_RESERVED] = 0
	L2_cache_stats_breakdown[TEXTURE_ACC_R][MISS] = 0
	L2_cache_stats_breakdown[TEXTURE_ACC_R][RESERVATION_FAIL] = 0
	L2_cache_stats_breakdown[GLOBAL_ACC_W][HIT] = 1
	L2_cache_stats_breakdown[GLOBAL_ACC_W][HIT_RESERVED] = 0
	L2_cache_stats_breakdown[GLOBAL_ACC_W][MISS] = 16
	L2_cache_stats_breakdown[GLOBAL_ACC_W][RESERVATION_FAIL] = 0
	L2_cache_stats_breakdown[LOCAL_ACC_W][HIT] = 0
	L2_cache_stats_breakdown[LOCAL_ACC_W][HIT_RESERVED] = 0
	L2_cache_stats_breakdown[LOCAL_ACC_W][MISS] = 0
	L2_cache_stats_breakdown[LOCAL_ACC_W][RESERVATION_FAIL] = 0
	L2_cache_stats_breakdown[L1_WRBK_ACC][HIT] = 0
	L2_cache_stats_breakdown[L1_WRBK_ACC][HIT_RESERVED] = 0
	L2_cache_stats_breakdown[L1_WRBK_ACC][MISS] = 0
	L2_cache_stats_breakdown[L1_WRBK_ACC][RESERVATION_FAIL] = 0
	L2_cache_stats_breakdown[L2_WRBK_ACC][HIT] = 0
	L2_cache_stats_breakdown[L2_WRBK_ACC][HIT_RESERVED] = 0
	L2_cache_stats_breakdown[L2_WRBK_ACC][MISS] = 0
	L2_cache_stats_breakdown[L2_WRBK_ACC][RESERVATION_FAIL] = 0
	L2_cache_stats_breakdown[INST_ACC_R][HIT] = 27
	L2_cache_stats_breakdown[INST_ACC_R][HIT_RESERVED] = 54
	L2_cache_stats_breakdown[INST_ACC_R][MISS] = 4
	L2_cache_stats_breakdown[INST_ACC_R][RESERVATION_FAIL] = 0
	L2_cache_stats_breakdown[L1_WR_ALLOC_R][HIT] = 0
	L2_cache_stats_breakdown[L1_WR_ALLOC_R][HIT_RESERVED] = 0
	L2_cache_stats_breakdown[L1_WR_ALLOC_R][MISS] = 0
	L2_cache_stats_breakdown[L1_WR_ALLOC_R][RESERVATION_FAIL] = 0
	L2_cache_stats_breakdown[L2_WR_ALLOC_R][HIT] = 0
	L2_cache_stats_breakdown[L2_WR_ALLOC_R][HIT_RESERVED] = 0
	L2_cache_stats_breakdown[L2_WR_ALLOC_R][MISS] = 0
	L2_cache_stats_breakdown[L2_WR_ALLOC_R][RESERVATION_FAIL] = 0
	L2_cache_stats_breakdown[GLOBAL_ACC_R][TOTAL_ACCESS] = 2090
	L2_cache_stats_breakdown[CONST_ACC_R][TOTAL_ACCESS] = 28
	L2_cache_stats_breakdown[GLOBAL_ACC_W][TOTAL_ACCESS] = 17
	L2_cache_stats_breakdown[INST_ACC_R][TOTAL_ACCESS] = 85
L2_cache_data_port_util = 0.000
L2_cache_fill_port_util = 0.006

icnt_total_pkts_mem_to_simt=4706
icnt_total_pkts_simt_to_mem=2237
LD_mem_lat_dist  0 0 0 0 0 0 0 0 0 0 0 0 0 0 0 0 0 0 0 0 0 0 0 0 0 0 0
ST_mem_lat_dist  0 0 0 0 0 0 0 0 0 0 0 0 0 0 0 0 0 0 0 0 0 0 0 0 0 0 0
----------------------------Interconnect-DETAILS--------------------------------
Class 0:
Packet latency average = 28.4212
	minimum = 6
	maximum = 98
Network latency average = 18.9153
	minimum = 6
	maximum = 60
Slowest packet = 27
Flit latency average = 16.6003
	minimum = 6
	maximum = 60
Slowest flit = 27
Fragmentation average = 0
	minimum = 0
	maximum = 0
Injected packet rate average = 0.00248698
	minimum = 0.00190444 (at node 11)
	maximum = 0.00403294 (at node 1)
Accepted packet rate average = 0.00248698
	minimum = 0.00190444 (at node 11)
	maximum = 0.00403294 (at node 1)
Injected flit rate average = 0.00388898
	minimum = 0.00190444 (at node 11)
	maximum = 0.00935417 (at node 39)
Accepted flit rate average= 0.00388898
	minimum = 0.0025766 (at node 29)
	maximum = 0.00795385 (at node 1)
Injected packet length average = 1.56374
Accepted packet length average = 1.56374
Total in-flight flits = 0 (0 measured)
====== Overall Traffic Statistics ======
====== Traffic class 0 ======
Packet latency average = 28.4212 (1 samples)
	minimum = 6 (1 samples)
	maximum = 98 (1 samples)
Network latency average = 18.9153 (1 samples)
	minimum = 6 (1 samples)
	maximum = 60 (1 samples)
Flit latency average = 16.6003 (1 samples)
	minimum = 6 (1 samples)
	maximum = 60 (1 samples)
Fragmentation average = 0 (1 samples)
	minimum = 0 (1 samples)
	maximum = 0 (1 samples)
Injected packet rate average = 0.00248698 (1 samples)
	minimum = 0.00190444 (1 samples)
	maximum = 0.00403294 (1 samples)
Accepted packet rate average = 0.00248698 (1 samples)
	minimum = 0.00190444 (1 samples)
	maximum = 0.00403294 (1 samples)
Injected flit rate average = 0.00388898 (1 samples)
	minimum = 0.00190444 (1 samples)
	maximum = 0.00935417 (1 samples)
Accepted flit rate average = 0.00388898 (1 samples)
	minimum = 0.0025766 (1 samples)
	maximum = 0.00795385 (1 samples)
Injected packet size average = 1.56374 (1 samples)
Accepted packet size average = 1.56374 (1 samples)
Hops average = 1 (1 samples)
----------------------------END-of-Interconnect-DETAILS-------------------------


gpgpu_simulation_time = 0 days, 0 hrs, 0 min, 15 sec (15 sec)
gpgpu_simulation_rate = 83025 (inst/sec)
gpgpu_simulation_rate = 16017 (cycle/sec)

GPGPU-Sim PTX: cudaLaunch for 0x0x401649 (mode=performance simulation) on stream 0
GPGPU-Sim PTX: pushing kernel '_Z7Kernel2PbS_S_S_i' to stream 0, gridDim= (128,1,1) blockDim = (512,1,1) 
GPGPU-Sim uArch: Shader 11 bind to kernel 2 '_Z7Kernel2PbS_S_S_i'
GPGPU-Sim uArch: CTA/core = 4, limited by: threads
GPGPU-Sim uArch: Shader 12 bind to kernel 2 '_Z7Kernel2PbS_S_S_i'
GPGPU-Sim uArch: Shader 13 bind to kernel 2 '_Z7Kernel2PbS_S_S_i'
GPGPU-Sim uArch: Shader 14 bind to kernel 2 '_Z7Kernel2PbS_S_S_i'
GPGPU-Sim uArch: Shader 15 bind to kernel 2 '_Z7Kernel2PbS_S_S_i'
GPGPU-Sim uArch: Shader 16 bind to kernel 2 '_Z7Kernel2PbS_S_S_i'
GPGPU-Sim uArch: Shader 17 bind to kernel 2 '_Z7Kernel2PbS_S_S_i'
GPGPU-Sim uArch: Shader 18 bind to kernel 2 '_Z7Kernel2PbS_S_S_i'
GPGPU-Sim uArch: Shader 19 bind to kernel 2 '_Z7Kernel2PbS_S_S_i'
GPGPU-Sim uArch: Shader 20 bind to kernel 2 '_Z7Kernel2PbS_S_S_i'
GPGPU-Sim uArch: Shader 21 bind to kernel 2 '_Z7Kernel2PbS_S_S_i'
GPGPU-Sim uArch: Shader 22 bind to kernel 2 '_Z7Kernel2PbS_S_S_i'
GPGPU-Sim uArch: Shader 23 bind to kernel 2 '_Z7Kernel2PbS_S_S_i'
GPGPU-Sim uArch: Shader 24 bind to kernel 2 '_Z7Kernel2PbS_S_S_i'
GPGPU-Sim uArch: Shader 25 bind to kernel 2 '_Z7Kernel2PbS_S_S_i'
GPGPU-Sim uArch: Shader 26 bind to kernel 2 '_Z7Kernel2PbS_S_S_i'
GPGPU-Sim uArch: Shader 27 bind to kernel 2 '_Z7Kernel2PbS_S_S_i'
GPGPU-Sim uArch: Shader 0 bind to kernel 2 '_Z7Kernel2PbS_S_S_i'
GPGPU-Sim uArch: Shader 1 bind to kernel 2 '_Z7Kernel2PbS_S_S_i'
GPGPU-Sim uArch: Shader 2 bind to kernel 2 '_Z7Kernel2PbS_S_S_i'
GPGPU-Sim uArch: Shader 3 bind to kernel 2 '_Z7Kernel2PbS_S_S_i'
GPGPU-Sim uArch: Shader 4 bind to kernel 2 '_Z7Kernel2PbS_S_S_i'
GPGPU-Sim uArch: Shader 5 bind to kernel 2 '_Z7Kernel2PbS_S_S_i'
GPGPU-Sim uArch: Shader 6 bind to kernel 2 '_Z7Kernel2PbS_S_S_i'
GPGPU-Sim uArch: Shader 7 bind to kernel 2 '_Z7Kernel2PbS_S_S_i'
GPGPU-Sim uArch: Shader 8 bind to kernel 2 '_Z7Kernel2PbS_S_S_i'
GPGPU-Sim uArch: Shader 9 bind to kernel 2 '_Z7Kernel2PbS_S_S_i'
GPGPU-Sim uArch: Shader 10 bind to kernel 2 '_Z7Kernel2PbS_S_S_i'
Destroy streams for kernel 2: size 0
kernel_name = _Z7Kernel2PbS_S_S_i 
kernel_launch_uid = 2 
gpu_sim_cycle = 2567
gpu_sim_insn = 1114192
gpu_ipc =     434.0444
gpu_tot_sim_cycle = 464975
gpu_tot_sim_insn = 2359568
gpu_tot_ipc =       5.0746
gpu_tot_issued_cta = 256
max_total_param_size = 0
gpu_stall_dramfull = 227
gpu_stall_icnt2sh    = 7181
partiton_reqs_in_parallel = 56282
partiton_reqs_in_parallel_total    = 392753
partiton_level_parallism =      21.9252
partiton_level_parallism_total  =       0.9657
partiton_reqs_in_parallel_util = 56282
partiton_reqs_in_parallel_util_total    = 392753
gpu_sim_cycle_parition_util = 2567
gpu_tot_sim_cycle_parition_util    = 17854
partiton_level_parallism_util =      21.9252
partiton_level_parallism_util_total  =      21.9889
partiton_replys_in_parallel = 2136
partiton_replys_in_parallel_total    = 2220
L2_BW  =      78.8697 GB/Sec
L2_BW_total  =       0.8880 GB/Sec
gpu_total_sim_rate=124187

========= Core cache stats =========
L1I_cache:
	L1I_total_cache_accesses = 43152
	L1I_total_cache_misses = 5351
	L1I_total_cache_miss_rate = 0.1240
	L1I_total_cache_pending_hits = 0
	L1I_total_cache_reservation_fails = 15453
L1D_cache:
	L1D_cache_core[0]: Access = 0, Miss = 0, Miss_rate = -nan, Pending_hits = 0, Reservation_fails = 0
	L1D_cache_core[1]: Access = 0, Miss = 0, Miss_rate = -nan, Pending_hits = 0, Reservation_fails = 0
	L1D_cache_core[2]: Access = 0, Miss = 0, Miss_rate = -nan, Pending_hits = 0, Reservation_fails = 0
	L1D_cache_core[3]: Access = 0, Miss = 0, Miss_rate = -nan, Pending_hits = 0, Reservation_fails = 0
	L1D_cache_core[4]: Access = 0, Miss = 0, Miss_rate = -nan, Pending_hits = 0, Reservation_fails = 0
	L1D_cache_core[5]: Access = 0, Miss = 0, Miss_rate = -nan, Pending_hits = 0, Reservation_fails = 0
	L1D_cache_core[6]: Access = 0, Miss = 0, Miss_rate = -nan, Pending_hits = 0, Reservation_fails = 0
	L1D_cache_core[7]: Access = 0, Miss = 0, Miss_rate = -nan, Pending_hits = 0, Reservation_fails = 0
	L1D_cache_core[8]: Access = 0, Miss = 0, Miss_rate = -nan, Pending_hits = 0, Reservation_fails = 0
	L1D_cache_core[9]: Access = 0, Miss = 0, Miss_rate = -nan, Pending_hits = 0, Reservation_fails = 0
	L1D_cache_core[10]: Access = 0, Miss = 0, Miss_rate = -nan, Pending_hits = 0, Reservation_fails = 0
	L1D_cache_core[11]: Access = 0, Miss = 0, Miss_rate = -nan, Pending_hits = 0, Reservation_fails = 0
	L1D_cache_core[12]: Access = 0, Miss = 0, Miss_rate = -nan, Pending_hits = 0, Reservation_fails = 0
	L1D_cache_core[13]: Access = 0, Miss = 0, Miss_rate = -nan, Pending_hits = 0, Reservation_fails = 0
	L1D_cache_core[14]: Access = 0, Miss = 0, Miss_rate = -nan, Pending_hits = 0, Reservation_fails = 0
	L1D_cache_core[15]: Access = 0, Miss = 0, Miss_rate = -nan, Pending_hits = 0, Reservation_fails = 0
	L1D_cache_core[16]: Access = 0, Miss = 0, Miss_rate = -nan, Pending_hits = 0, Reservation_fails = 0
	L1D_cache_core[17]: Access = 0, Miss = 0, Miss_rate = -nan, Pending_hits = 0, Reservation_fails = 0
	L1D_cache_core[18]: Access = 0, Miss = 0, Miss_rate = -nan, Pending_hits = 0, Reservation_fails = 0
	L1D_cache_core[19]: Access = 0, Miss = 0, Miss_rate = -nan, Pending_hits = 0, Reservation_fails = 0
	L1D_cache_core[20]: Access = 0, Miss = 0, Miss_rate = -nan, Pending_hits = 0, Reservation_fails = 0
	L1D_cache_core[21]: Access = 0, Miss = 0, Miss_rate = -nan, Pending_hits = 0, Reservation_fails = 0
	L1D_cache_core[22]: Access = 0, Miss = 0, Miss_rate = -nan, Pending_hits = 0, Reservation_fails = 0
	L1D_cache_core[23]: Access = 0, Miss = 0, Miss_rate = -nan, Pending_hits = 0, Reservation_fails = 0
	L1D_cache_core[24]: Access = 0, Miss = 0, Miss_rate = -nan, Pending_hits = 0, Reservation_fails = 0
	L1D_cache_core[25]: Access = 0, Miss = 0, Miss_rate = -nan, Pending_hits = 0, Reservation_fails = 0
	L1D_cache_core[26]: Access = 0, Miss = 0, Miss_rate = -nan, Pending_hits = 0, Reservation_fails = 0
	L1D_cache_core[27]: Access = 0, Miss = 0, Miss_rate = -nan, Pending_hits = 0, Reservation_fails = 0
	L1D_total_cache_accesses = 0
	L1D_total_cache_misses = 0
	L1D_total_cache_pending_hits = 0
	L1D_total_cache_reservation_fails = 0
	L1D_cache_data_port_util = 0.000
	L1D_cache_fill_port_util = 0.000
L1C_cache:
	L1C_total_cache_accesses = 24576
	L1C_total_cache_misses = 1792
	L1C_total_cache_miss_rate = 0.0729
	L1C_total_cache_pending_hits = 0
	L1C_total_cache_reservation_fails = 4886
L1T_cache:
	L1T_total_cache_accesses = 0
	L1T_total_cache_misses = 0
	L1T_total_cache_pending_hits = 0
	L1T_total_cache_reservation_fails = 0

Total_core_cache_stats:
	Total_core_cache_stats_breakdown[GLOBAL_ACC_R][HIT] = 0
	Total_core_cache_stats_breakdown[GLOBAL_ACC_R][HIT_RESERVED] = 0
	Total_core_cache_stats_breakdown[GLOBAL_ACC_R][MISS] = 0
	Total_core_cache_stats_breakdown[GLOBAL_ACC_R][RESERVATION_FAIL] = 0
	Total_core_cache_stats_breakdown[LOCAL_ACC_R][HIT] = 0
	Total_core_cache_stats_breakdown[LOCAL_ACC_R][HIT_RESERVED] = 0
	Total_core_cache_stats_breakdown[LOCAL_ACC_R][MISS] = 0
	Total_core_cache_stats_breakdown[LOCAL_ACC_R][RESERVATION_FAIL] = 0
	Total_core_cache_stats_breakdown[CONST_ACC_R][HIT] = 22784
	Total_core_cache_stats_breakdown[CONST_ACC_R][HIT_RESERVED] = 0
	Total_core_cache_stats_breakdown[CONST_ACC_R][MISS] = 1792
	Total_core_cache_stats_breakdown[CONST_ACC_R][RESERVATION_FAIL] = 4886
	Total_core_cache_stats_breakdown[TEXTURE_ACC_R][HIT] = 0
	Total_core_cache_stats_breakdown[TEXTURE_ACC_R][HIT_RESERVED] = 0
	Total_core_cache_stats_breakdown[TEXTURE_ACC_R][MISS] = 0
	Total_core_cache_stats_breakdown[TEXTURE_ACC_R][RESERVATION_FAIL] = 0
	Total_core_cache_stats_breakdown[GLOBAL_ACC_W][HIT] = 0
	Total_core_cache_stats_breakdown[GLOBAL_ACC_W][HIT_RESERVED] = 0
	Total_core_cache_stats_breakdown[GLOBAL_ACC_W][MISS] = 0
	Total_core_cache_stats_breakdown[GLOBAL_ACC_W][RESERVATION_FAIL] = 0
	Total_core_cache_stats_breakdown[LOCAL_ACC_W][HIT] = 0
	Total_core_cache_stats_breakdown[LOCAL_ACC_W][HIT_RESERVED] = 0
	Total_core_cache_stats_breakdown[LOCAL_ACC_W][MISS] = 0
	Total_core_cache_stats_breakdown[LOCAL_ACC_W][RESERVATION_FAIL] = 0
	Total_core_cache_stats_breakdown[L1_WRBK_ACC][HIT] = 0
	Total_core_cache_stats_breakdown[L1_WRBK_ACC][HIT_RESERVED] = 0
	Total_core_cache_stats_breakdown[L1_WRBK_ACC][MISS] = 0
	Total_core_cache_stats_breakdown[L1_WRBK_ACC][RESERVATION_FAIL] = 0
	Total_core_cache_stats_breakdown[L2_WRBK_ACC][HIT] = 0
	Total_core_cache_stats_breakdown[L2_WRBK_ACC][HIT_RESERVED] = 0
	Total_core_cache_stats_breakdown[L2_WRBK_ACC][MISS] = 0
	Total_core_cache_stats_breakdown[L2_WRBK_ACC][RESERVATION_FAIL] = 0
	Total_core_cache_stats_breakdown[INST_ACC_R][HIT] = 37801
	Total_core_cache_stats_breakdown[INST_ACC_R][HIT_RESERVED] = 0
	Total_core_cache_stats_breakdown[INST_ACC_R][MISS] = 5351
	Total_core_cache_stats_breakdown[INST_ACC_R][RESERVATION_FAIL] = 15453
	Total_core_cache_stats_breakdown[L1_WR_ALLOC_R][HIT] = 0
	Total_core_cache_stats_breakdown[L1_WR_ALLOC_R][HIT_RESERVED] = 0
	Total_core_cache_stats_breakdown[L1_WR_ALLOC_R][MISS] = 0
	Total_core_cache_stats_breakdown[L1_WR_ALLOC_R][RESERVATION_FAIL] = 0
	Total_core_cache_stats_breakdown[L2_WR_ALLOC_R][HIT] = 0
	Total_core_cache_stats_breakdown[L2_WR_ALLOC_R][HIT_RESERVED] = 0
	Total_core_cache_stats_breakdown[L2_WR_ALLOC_R][MISS] = 0
	Total_core_cache_stats_breakdown[L2_WR_ALLOC_R][RESERVATION_FAIL] = 0
	Total_core_cache_stats_breakdown[CONST_ACC_R][TOTAL_ACCESS] = 24576
	Total_core_cache_stats_breakdown[INST_ACC_R][TOTAL_ACCESS] = 43152
Shader 0 warp_id issue ditsribution:
warp_id:
0, 1, 2, 3, 4, 5, 6, 7, 8, 9, 10, 11, 12, 13, 14, 15, 16, 17, 18, 19, 20, 21, 22, 23, 24, 25, 26, 27, 28, 29, 30, 31, 32, 33, 34, 35, 36, 37, 38, 39, 40, 41, 42, 43, 44, 45, 46, 47, 48, 49, 50, 51, 52, 53, 54, 55, 56, 57, 58, 59, 60, 61, 62, 63, 
distro:
67, 67, 66, 67, 66, 67, 66, 67, 67, 67, 67, 67, 67, 67, 67, 67, 44, 44, 44, 44, 44, 44, 44, 44, 44, 44, 44, 44, 44, 44, 44, 44, 44, 44, 44, 44, 44, 44, 44, 44, 44, 44, 44, 44, 44, 44, 44, 44, 44, 44, 44, 44, 44, 44, 44, 44, 44, 44, 44, 44, 44, 44, 44, 44, 
gpgpu_n_tot_thrd_icount = 2499680
gpgpu_n_tot_w_icount = 78115
gpgpu_n_stall_shd_mem = 5409
gpgpu_n_mem_read_local = 0
gpgpu_n_mem_write_local = 0
gpgpu_n_mem_read_global = 4138
gpgpu_n_mem_write_global = 49
gpgpu_n_mem_texture = 0
gpgpu_n_mem_const = 28
gpgpu_n_load_insn  = 131114
gpgpu_n_store_insn = 49
gpgpu_n_shmem_insn = 0
gpgpu_n_tex_insn = 0
gpgpu_n_const_mem_insn = 0
gpgpu_n_param_mem_insn = 786432
gpgpu_n_shmem_bkconflict = 0
gpgpu_n_cache_bkconflict = 0
gpgpu_n_intrawarp_mshr_merge = 0
gpgpu_n_cmem_portconflict = 4886
gpgpu_stall_shd_mem[c_mem][bk_conf] = 4886
gpgpu_stall_shd_mem[c_mem][mshr_rc] = 0
gpgpu_stall_shd_mem[c_mem][icnt_rc] = 0
gpgpu_stall_shd_mem[c_mem][data_port_stall] = 0
gpgpu_stall_shd_mem[t_mem][mshr_rc] = 0
gpgpu_stall_shd_mem[t_mem][icnt_rc] = 0
gpgpu_stall_shd_mem[t_mem][data_port_stall] = 0
gpgpu_stall_shd_mem[s_mem][bk_conf] = 0
gpgpu_stall_shd_mem[gl_mem][bk_conf] = 0
gpgpu_stall_shd_mem[gl_mem][coal_stall] = 2
gpgpu_stall_shd_mem[gl_mem][data_port_stall] = 0
gpgpu_stall_shd_mem[g_mem_ld][mshr_rc] = 0
gpgpu_stall_shd_mem[g_mem_ld][icnt_rc] = 521
gpgpu_stall_shd_mem[g_mem_ld][wb_icnt_rc] = 0
gpgpu_stall_shd_mem[g_mem_ld][wb_rsrv_fail] = 0
gpgpu_stall_shd_mem[g_mem_st][mshr_rc] = 0
gpgpu_stall_shd_mem[g_mem_st][icnt_rc] = 0
gpgpu_stall_shd_mem[g_mem_st][wb_icnt_rc] = 0
gpgpu_stall_shd_mem[g_mem_st][wb_rsrv_fail] = 0
gpgpu_stall_shd_mem[l_mem_ld][mshr_rc] = 0
gpgpu_stall_shd_mem[l_mem_ld][icnt_rc] = 0
gpgpu_stall_shd_mem[l_mem_ld][wb_icnt_rc] = 0
gpgpu_stall_shd_mem[l_mem_ld][wb_rsrv_fail] = 0
gpgpu_stall_shd_mem[l_mem_st][mshr_rc] = 0
gpgpu_stall_shd_mem[l_mem_st][icnt_rc] = 0
gpgpu_stall_shd_mem[l_mem_ld][wb_icnt_rc] = 0
gpgpu_stall_shd_mem[l_mem_ld][wb_rsrv_fail] = 0
gpu_reg_bank_conflict_stalls = 0
Warp Occupancy Distribution:
Stall:20489	W0_Idle:59569	W0_Scoreboard:384555	W1:291	W2:0	W3:0	W4:0	W5:0	W6:0	W7:0	W8:0	W9:0	W10:0	W11:0	W12:0	W13:0	W14:0	W15:0	W16:0	W17:0	W18:0	W19:0	W20:0	W21:0	W22:0	W23:0	W24:0	W25:0	W26:0	W27:0	W28:0	W29:0	W30:0	W31:0	W32:77824
traffic_breakdown_coretomem[CONST_ACC_R] = 224 {8:28,}
traffic_breakdown_coretomem[GLOBAL_ACC_R] = 33104 {8:4138,}
traffic_breakdown_coretomem[GLOBAL_ACC_W] = 1960 {40:49,}
traffic_breakdown_coretomem[INST_ACC_R] = 1128 {8:141,}
traffic_breakdown_memtocore[CONST_ACC_R] = 2016 {72:28,}
traffic_breakdown_memtocore[GLOBAL_ACC_R] = 165520 {40:4138,}
traffic_breakdown_memtocore[GLOBAL_ACC_W] = 392 {8:49,}
traffic_breakdown_memtocore[INST_ACC_R] = 19176 {136:141,}
maxmrqlatency = 116 
maxdqlatency = 0 
[...]
F:  3389275----T:  3389535 	 St: 803f2000 Sz: 4096 	 Sm: 0 	 T: memcpy_h2d(0.175557)
F:  3389535----T:  3389795 	 St: 8040c000 Sz: 4096 	 Sm: 0 	 T: memcpy_h2d(0.175557)
F:  3389795----T:  3390055 	 St: 80408000 Sz: 4096 	 Sm: 0 	 T: memcpy_h2d(0.175557)
F:  3390055----T:  3390315 	 St: 8040f000 Sz: 4096 	 Sm: 0 	 T: memcpy_h2d(0.175557)
F:  3390315----T:  3390575 	 St: 803f3000 Sz: 4096 	 Sm: 0 	 T: memcpy_h2d(0.175557)
F:  3390575----T:  3390835 	 St: 80402000 Sz: 4096 	 Sm: 0 	 T: memcpy_h2d(0.175557)
F:  3390835----T:  3391095 	 St: 8040e000 Sz: 4096 	 Sm: 0 	 T: memcpy_h2d(0.175557)
F:  3391095----T:  3391355 	 St: 80407000 Sz: 4096 	 Sm: 0 	 T: memcpy_h2d(0.175557)
F:  3391355----T:  3391615 	 St: 803fa000 Sz: 4096 	 Sm: 0 	 T: memcpy_h2d(0.175557)
F:  3391615----T:  3391875 	 St: 8040d000 Sz: 4096 	 Sm: 0 	 T: memcpy_h2d(0.175557)
F:  3391875----T:  3392135 	 St: 803f9000 Sz: 4096 	 Sm: 0 	 T: memcpy_h2d(0.175557)
F:  3392135----T:  3392395 	 St: 803f7000 Sz: 4096 	 Sm: 0 	 T: memcpy_h2d(0.175557)
F:  3392395----T:  3392655 	 St: 803f8000 Sz: 4096 	 Sm: 0 	 T: memcpy_h2d(0.175557)
F:  3392655----T:  3392915 	 St: 803f6000 Sz: 4096 	 Sm: 0 	 T: memcpy_h2d(0.175557)
F:  3392915----T:  3393175 	 St: 80409000 Sz: 4096 	 Sm: 0 	 T: memcpy_h2d(0.175557)
F:  3393175----T:  3393435 	 St: 803fd000 Sz: 4096 	 Sm: 0 	 T: memcpy_h2d(0.175557)
F:  3393435----T:  3393695 	 St: 803fc000 Sz: 4096 	 Sm: 0 	 T: memcpy_h2d(0.175557)
F:  3393695----T:  3393955 	 St: 803f4000 Sz: 4096 	 Sm: 0 	 T: memcpy_h2d(0.175557)
F:  3393955----T:  3394215 	 St: 80415000 Sz: 4096 	 Sm: 0 	 T: memcpy_h2d(0.175557)
F:  3625935----T:  3630281 	 	 	 Kl: 12 	 Sm: 0 	 T: kernel_launch(2.934504)
F:  3630281----T:  3630534 	 St: 80000000 Sz: 1 	 Sm: 0 	 T: memcpy_d2h(0.170831)
F:  3630535----T:  3630788 	 St: 80000000 Sz: 1 	 Sm: 0 	 T: memcpy_h2d(0.170831)
F:  3852939----T:  3939911 	 	 	 Kl: 13 	 Sm: 0 	 T: kernel_launch(58.725185)
F:  3854434----T:  3854687 	 St: 802feec0 Sz: 64 	 Sm: 0 	 T: rdma(0.170831)
F:  3854687----T:  3854940 	 St: 802fef00 Sz: 128 	 Sm: 0 	 T: rdma(0.170831)
F:  3854940----T:  3855193 	 St: 802fef80 Sz: 128 	 Sm: 0 	 T: rdma(0.170831)
F:  3855193----T:  3855446 	 St: 802fb2e0 Sz: 32 	 Sm: 0 	 T: rdma(0.170831)
F:  3855446----T:  3855699 	 St: 802fbf60 Sz: 32 	 Sm: 0 	 T: rdma(0.170831)
F:  3855699----T:  3855952 	 St: 802fb300 Sz: 128 	 Sm: 0 	 T: rdma(0.170831)
F:  3855952----T:  3856205 	 St: 802fbf80 Sz: 128 	 Sm: 0 	 T: rdma(0.170831)
F:  3856205----T:  3856458 	 St: 80302000 Sz: 128 	 Sm: 0 	 T: rdma(0.170831)
F:  3856458----T:  3856711 	 St: 80302080 Sz: 64 	 Sm: 0 	 T: rdma(0.170831)
F:  3856711----T:  3856964 	 St: 80302100 Sz: 128 	 Sm: 0 	 T: rdma(0.170831)
F:  3856964----T:  3857217 	 St: 80302180 Sz: 128 	 Sm: 0 	 T: rdma(0.170831)
F:  3857217----T:  3857470 	 St: 80302240 Sz: 32 	 Sm: 0 	 T: rdma(0.170831)
F:  3857470----T:  3857723 	 St: 80302280 Sz: 32 	 Sm: 0 	 T: rdma(0.170831)
F:  3857723----T:  3857976 	 St: 803025a0 Sz: 32 	 Sm: 0 	 T: rdma(0.170831)
F:  3857976----T:  3858229 	 St: 80302600 Sz: 128 	 Sm: 0 	 T: rdma(0.170831)
F:  3858229----T:  3858482 	 St: 8034d460 Sz: 32 	 Sm: 0 	 T: rdma(0.170831)
F:  3858482----T:  3858735 	 St: 8034d480 Sz: 64 	 Sm: 0 	 T: rdma(0.170831)
F:  3858735----T:  3858988 	 St: 8034d500 Sz: 128 	 Sm: 0 	 T: rdma(0.170831)
F:  3858988----T:  3859241 	 St: 8034d580 Sz: 128 	 Sm: 0 	 T: rdma(0.170831)
F:  3859241----T:  3859494 	 St: 8034d600 Sz: 128 	 Sm: 0 	 T: rdma(0.170831)
F:  3859494----T:  3859747 	 St: 802fe340 Sz: 64 	 Sm: 0 	 T: rdma(0.170831)
F:  3859747----T:  3860000 	 St: 802fe380 Sz: 32 	 Sm: 0 	 T: rdma(0.170831)
F:  3860000----T:  3860253 	 St: 802fe400 Sz: 128 	 Sm: 0 	 T: rdma(0.170831)
F:  3860253----T:  3860506 	 St: 802fe480 Sz: 128 	 Sm: 0 	 T: rdma(0.170831)
F:  3860506----T:  3860759 	 St: 802fe500 Sz: 128 	 Sm: 0 	 T: rdma(0.170831)
F:  3860759----T:  3861012 	 St: 802fe5c0 Sz: 32 	 Sm: 0 	 T: rdma(0.170831)
F:  3861012----T:  3861265 	 St: 8041a800 Sz: 128 	 Sm: 0 	 T: rdma(0.170831)
F:  3861265----T:  3861518 	 St: 8041a880 Sz: 128 	 Sm: 0 	 T: rdma(0.170831)
F:  3861518----T:  3861771 	 St: 8041a900 Sz: 128 	 Sm: 0 	 T: rdma(0.170831)
F:  3861771----T:  3862024 	 St: 8041a980 Sz: 128 	 Sm: 0 	 T: rdma(0.170831)
F:  3862024----T:  3862277 	 St: 8041aa00 Sz: 64 	 Sm: 0 	 T: rdma(0.170831)
F:  3862277----T:  3862530 	 St: 8041aa80 Sz: 128 	 Sm: 0 	 T: rdma(0.170831)
F:  3862530----T:  3862783 	 St: 8041a240 Sz: 64 	 Sm: 0 	 T: rdma(0.170831)
F:  3862783----T:  3863036 	 St: 8041a280 Sz: 128 	 Sm: 0 	 T: rdma(0.170831)
F:  3863036----T:  3863289 	 St: 8041a340 Sz: 32 	 Sm: 0 	 T: rdma(0.170831)
F:  3863289----T:  3863542 	 St: 8042dfc0 Sz: 32 	 Sm: 0 	 T: rdma(0.170831)
F:  3863542----T:  3863795 	 St: 80426000 Sz: 128 	 Sm: 0 	 T: rdma(0.170831)
F:  3863795----T:  3864048 	 St: 80426620 Sz: 32 	 Sm: 0 	 T: rdma(0.170831)
F:  3864048----T:  3864301 	 St: 80426680 Sz: 128 	 Sm: 0 	 T: rdma(0.170831)
F:  3864301----T:  3864554 	 St: 8042f280 Sz: 128 	 Sm: 0 	 T: rdma(0.170831)
F:  3864554----T:  3864807 	 St: 80426700 Sz: 128 	 Sm: 0 	 T: rdma(0.170831)
F:  3864807----T:  3865060 	 St: 8042f340 Sz: 64 	 Sm: 0 	 T: rdma(0.170831)
F:  3865060----T:  3865313 	 St: 80426780 Sz: 128 	 Sm: 0 	 T: rdma(0.170831)
F:  3865313----T:  3865566 	 St: 8042f380 Sz: 128 	 Sm: 0 	 T: rdma(0.170831)
F:  3865566----T:  3865819 	 St: 80426800 Sz: 128 	 Sm: 0 	 T: rdma(0.170831)
F:  3865819----T:  3866072 	 St: 8042f400 Sz: 128 	 Sm: 0 	 T: rdma(0.170831)
F:  3866072----T:  3866325 	 St: 804268a0 Sz: 32 	 Sm: 0 	 T: rdma(0.170831)
F:  3866325----T:  3866578 	 St: 8042f480 Sz: 128 	 Sm: 0 	 T: rdma(0.170831)
F:  3866578----T:  3866831 	 St: 804260c0 Sz: 64 	 Sm: 0 	 T: rdma(0.170831)
F:  3866831----T:  3867084 	 St: 80426100 Sz: 128 	 Sm: 0 	 T: rdma(0.170831)
F:  3867084----T:  3867337 	 St: 804171e0 Sz: 32 	 Sm: 0 	 T: rdma(0.170831)
F:  3867337----T:  3867590 	 St: 80417200 Sz: 64 	 Sm: 0 	 T: rdma(0.170831)
F:  3867590----T:  3867843 	 St: 80417280 Sz: 128 	 Sm: 0 	 T: rdma(0.170831)
F:  3867843----T:  3868096 	 St: 80417340 Sz: 64 	 Sm: 0 	 T: rdma(0.170831)
F:  3868096----T:  3868349 	 St: 80417380 Sz: 128 	 Sm: 0 	 T: rdma(0.170831)
F:  3868349----T:  3868602 	 St: 80417400 Sz: 128 	 Sm: 0 	 T: rdma(0.170831)
F:  3868602----T:  3868855 	 St: 804177c0 Sz: 64 	 Sm: 0 	 T: rdma(0.170831)
F:  3868855----T:  3869108 	 St: 80417800 Sz: 128 	 Sm: 0 	 T: rdma(0.170831)
F:  3869108----T:  3869361 	 St: 80417880 Sz: 128 	 Sm: 0 	 T: rdma(0.170831)
F:  3869361----T:  3869614 	 St: 80433240 Sz: 64 	 Sm: 0 	 T: rdma(0.170831)
F:  3869614----T:  3869867 	 St: 80433280 Sz: 128 	 Sm: 0 	 T: rdma(0.170831)
F:  3869867----T:  3870120 	 St: 80433380 Sz: 128 	 Sm: 0 	 T: rdma(0.170831)
F:  3870120----T:  3870373 	 St: 80433400 Sz: 128 	 Sm: 0 	 T: rdma(0.170831)
F:  3870373----T:  3870626 	 St: 804334c0 Sz: 32 	 Sm: 0 	 T: rdma(0.170831)
F:  3870626----T:  3870879 	 St: 804337c0 Sz: 64 	 Sm: 0 	 T: rdma(0.170831)
F:  3870879----T:  3871132 	 St: 80433800 Sz: 128 	 Sm: 0 	 T: rdma(0.170831)
F:  3871132----T:  3871385 	 St: 80433880 Sz: 128 	 Sm: 0 	 T: rdma(0.170831)
F:  3871385----T:  3871638 	 St: 80433900 Sz: 128 	 Sm: 0 	 T: rdma(0.170831)
F:  3871638----T:  3871891 	 St: 8042a020 Sz: 32 	 Sm: 0 	 T: rdma(0.170831)
F:  3871891----T:  3872144 	 St: 8042a0e0 Sz: 32 	 Sm: 0 	 T: rdma(0.170831)
F:  3872144----T:  3872397 	 St: 8042a100 Sz: 128 	 Sm: 0 	 T: rdma(0.170831)
F:  3872397----T:  3872650 	 St: 80421000 Sz: 32 	 Sm: 0 	 T: rdma(0.170831)
F:  3872650----T:  3872903 	 St: 80421360 Sz: 32 	 Sm: 0 	 T: rdma(0.170831)
F:  3872903----T:  3873156 	 St: 80421380 Sz: 128 	 Sm: 0 	 T: rdma(0.170831)
F:  3873156----T:  3873409 	 St: 80421400 Sz: 64 	 Sm: 0 	 T: rdma(0.170831)
F:  3873409----T:  3873662 	 St: 804214c0 Sz: 64 	 Sm: 0 	 T: rdma(0.170831)
F:  3873662----T:  3873915 	 St: 80421520 Sz: 32 	 Sm: 0 	 T: rdma(0.170831)
F:  3873915----T:  3874168 	 St: 80421580 Sz: 128 	 Sm: 0 	 T: rdma(0.170831)
F:  3874168----T:  3874421 	 St: 80421600 Sz: 32 	 Sm: 0 	 T: rdma(0.170831)
F:  3874421----T:  3874674 	 St: 8042d680 Sz: 128 	 Sm: 0 	 T: rdma(0.170831)
F:  3874674----T:  3874927 	 St: 8042d700 Sz: 128 	 Sm: 0 	 T: rdma(0.170831)
F:  3874927----T:  3875180 	 St: 8042d780 Sz: 128 	 Sm: 0 	 T: rdma(0.170831)
F:  3875180----T:  3875433 	 St: 8042d800 Sz: 32 	 Sm: 0 	 T: rdma(0.170831)
F:  3875433----T:  3875686 	 St: 8042d8a0 Sz: 32 	 Sm: 0 	 T: rdma(0.170831)
F:  3875686----T:  3875939 	 St: 8042d900 Sz: 128 	 Sm: 0 	 T: rdma(0.170831)
F:  3875939----T:  3876192 	 St: 8042f560 Sz: 32 	 Sm: 0 	 T: rdma(0.170831)
F:  3876192----T:  3876445 	 St: 8042d980 Sz: 32 	 Sm: 0 	 T: rdma(0.170831)
F:  3876445----T:  3876698 	 St: 8042f580 Sz: 128 	 Sm: 0 	 T: rdma(0.170831)
F:  3876698----T:  3876951 	 St: 8042f600 Sz: 128 	 Sm: 0 	 T: rdma(0.170831)
F:  3876951----T:  3877204 	 St: 80421980 Sz: 128 	 Sm: 0 	 T: rdma(0.170831)
F:  3877204----T:  3877457 	 St: 8042f680 Sz: 128 	 Sm: 0 	 T: rdma(0.170831)
F:  3877457----T:  3877710 	 St: 8042d120 Sz: 32 	 Sm: 0 	 T: rdma(0.170831)
F:  3877710----T:  3877963 	 St: 80423780 Sz: 128 	 Sm: 0 	 T: rdma(0.170831)
F:  3877963----T:  3878216 	 St: 80423840 Sz: 32 	 Sm: 0 	 T: rdma(0.170831)
F:  3878216----T:  3878469 	 St: 80423880 Sz: 128 	 Sm: 0 	 T: rdma(0.170831)
F:  3878469----T:  3878722 	 St: 80423900 Sz: 128 	 Sm: 0 	 T: rdma(0.170831)
F:  3878722----T:  3878975 	 St: 80423980 Sz: 128 	 Sm: 0 	 T: rdma(0.170831)
F:  3878975----T:  3879228 	 St: 80423a40 Sz: 64 	 Sm: 0 	 T: rdma(0.170831)
F:  3879228----T:  3879481 	 St: 80418640 Sz: 64 	 Sm: 0 	 T: rdma(0.170831)
F:  3879481----T:  3879734 	 St: 80418680 Sz: 128 	 Sm: 0 	 T: rdma(0.170831)
F:  3879734----T:  3879987 	 St: 80418700 Sz: 128 	 Sm: 0 	 T: rdma(0.170831)
F:  3879987----T:  3880240 	 St: 80418780 Sz: 128 	 Sm: 0 	 T: rdma(0.170831)
F:  3880240----T:  3880493 	 St: 80418840 Sz: 64 	 Sm: 0 	 T: rdma(0.170831)
F:  3880493----T:  3880746 	 St: 804188a0 Sz: 32 	 Sm: 0 	 T: rdma(0.170831)
F:  3880746----T:  3880999 	 St: 80418900 Sz: 128 	 Sm: 0 	 T: rdma(0.170831)
F:  3880999----T:  3881252 	 St: 80418080 Sz: 128 	 Sm: 0 	 T: rdma(0.170831)
F:  3881252----T:  3881505 	 St: 80418100 Sz: 128 	 Sm: 0 	 T: rdma(0.170831)
F:  3881505----T:  3881758 	 St: 80429ba0 Sz: 32 	 Sm: 0 	 T: rdma(0.170831)
F:  3881758----T:  3882011 	 St: 80429c00 Sz: 128 	 Sm: 0 	 T: rdma(0.170831)
F:  3882011----T:  3882264 	 St: 80429c80 Sz: 128 	 Sm: 0 	 T: rdma(0.170831)
F:  3882264----T:  3882517 	 St: 80429d00 Sz: 128 	 Sm: 0 	 T: rdma(0.170831)
F:  3882517----T:  3882770 	 St: 80429de0 Sz: 32 	 Sm: 0 	 T: rdma(0.170831)
F:  3882770----T:  3883023 	 St: 80429e40 Sz: 64 	 Sm: 0 	 T: rdma(0.170831)
F:  3883023----T:  3883276 	 St: 80429e80 Sz: 32 	 Sm: 0 	 T: rdma(0.170831)
F:  3883276----T:  3883529 	 St: 8042a700 Sz: 128 	 Sm: 0 	 T: rdma(0.170831)
F:  3883529----T:  3883782 	 St: 8042a780 Sz: 128 	 Sm: 0 	 T: rdma(0.170831)
F:  3883782----T:  3884035 	 St: 8042a800 Sz: 128 	 Sm: 0 	 T: rdma(0.170831)
F:  3884035----T:  3884288 	 St: 8042a880 Sz: 128 	 Sm: 0 	 T: rdma(0.170831)
F:  3884288----T:  3884541 	 St: 8042a900 Sz: 32 	 Sm: 0 	 T: rdma(0.170831)
F:  3884541----T:  3884794 	 St: 804295c0 Sz: 64 	 Sm: 0 	 T: rdma(0.170831)
F:  3884794----T:  3885047 	 St: 80429600 Sz: 128 	 Sm: 0 	 T: rdma(0.170831)
F:  3885047----T:  3885300 	 St: 8042aca0 Sz: 32 	 Sm: 0 	 T: rdma(0.170831)
F:  3885300----T:  3885553 	 St: 80423d00 Sz: 128 	 Sm: 0 	 T: rdma(0.170831)
F:  3885553----T:  3885806 	 St: 80423d80 Sz: 128 	 Sm: 0 	 T: rdma(0.170831)
F:  3885806----T:  3886059 	 St: 80423e00 Sz: 128 	 Sm: 0 	 T: rdma(0.170831)
F:  3886059----T:  3886312 	 St: 8041dc40 Sz: 32 	 Sm: 0 	 T: rdma(0.170831)
F:  3886312----T:  3886565 	 St: 8041dce0 Sz: 32 	 Sm: 0 	 T: rdma(0.170831)
F:  3886565----T:  3886818 	 St: 8041dd20 Sz: 32 	 Sm: 0 	 T: rdma(0.170831)
F:  3886818----T:  3887071 	 St: 8041dd80 Sz: 64 	 Sm: 0 	 T: rdma(0.170831)
F:  3887071----T:  3887324 	 St: 8041de40 Sz: 32 	 Sm: 0 	 T: rdma(0.170831)
F:  3887324----T:  3887577 	 St: 8041de80 Sz: 128 	 Sm: 0 	 T: rdma(0.170831)
F:  3887577----T:  3887830 	 St: 8041df40 Sz: 32 	 Sm: 0 	 T: rdma(0.170831)
F:  3887830----T:  3888083 	 St: 8041d3c0 Sz: 32 	 Sm: 0 	 T: rdma(0.170831)
F:  3888083----T:  3888336 	 St: 8041d420 Sz: 32 	 Sm: 0 	 T: rdma(0.170831)
F:  3888336----T:  3888596 	 St: 802fb000 Sz: 4096 	 Sm: 0 	 T: memcpy_h2d(0.175557)
F:  3888596----T:  3888856 	 St: 80302000 Sz: 4096 	 Sm: 0 	 T: memcpy_h2d(0.175557)
F:  3888856----T:  3889116 	 St: 8034d000 Sz: 4096 	 Sm: 0 	 T: memcpy_h2d(0.175557)
F:  3889116----T:  3889376 	 St: 802fe000 Sz: 4096 	 Sm: 0 	 T: memcpy_h2d(0.175557)
F:  3889376----T:  3889636 	 St: 8041a000 Sz: 4096 	 Sm: 0 	 T: memcpy_h2d(0.175557)
F:  3889636----T:  3889896 	 St: 80426000 Sz: 4096 	 Sm: 0 	 T: memcpy_h2d(0.175557)
F:  3889896----T:  3890156 	 St: 80417000 Sz: 4096 	 Sm: 0 	 T: memcpy_h2d(0.175557)
F:  3890156----T:  3890416 	 St: 80433000 Sz: 4096 	 Sm: 0 	 T: memcpy_h2d(0.175557)
F:  3890416----T:  3890676 	 St: 80421000 Sz: 4096 	 Sm: 0 	 T: memcpy_h2d(0.175557)
F:  3890676----T:  3890936 	 St: 8042f000 Sz: 4096 	 Sm: 0 	 T: memcpy_h2d(0.175557)
F:  3890936----T:  3891196 	 St: 8042d000 Sz: 4096 	 Sm: 0 	 T: memcpy_h2d(0.175557)
F:  3891196----T:  3891456 	 St: 80418000 Sz: 4096 	 Sm: 0 	 T: memcpy_h2d(0.175557)
F:  3891456----T:  3891716 	 St: 80429000 Sz: 4096 	 Sm: 0 	 T: memcpy_h2d(0.175557)
F:  3891716----T:  3891976 	 St: 8042a000 Sz: 4096 	 Sm: 0 	 T: memcpy_h2d(0.175557)
F:  3891976----T:  3892236 	 St: 80423000 Sz: 4096 	 Sm: 0 	 T: memcpy_h2d(0.175557)
F:  3892236----T:  3892496 	 St: 8041d000 Sz: 4096 	 Sm: 0 	 T: memcpy_h2d(0.175557)
F:  4162061----T:  4166432 	 	 	 Kl: 14 	 Sm: 0 	 T: kernel_launch(2.951384)
F:  4166432----T:  4166685 	 St: 80000000 Sz: 1 	 Sm: 0 	 T: memcpy_d2h(0.170831)
F:  4166686----T:  4166939 	 St: 80000000 Sz: 1 	 Sm: 0 	 T: memcpy_h2d(0.170831)
F:  4389090----T:  4423281 	 	 	 Kl: 15 	 Sm: 0 	 T: kernel_launch(23.086428)
F:  4391506----T:  4391759 	 St: 8041c540 Sz: 32 	 Sm: 0 	 T: rdma(0.170831)
F:  4391759----T:  4392012 	 St: 8041c5e0 Sz: 32 	 Sm: 0 	 T: rdma(0.170831)
F:  4392012----T:  4392265 	 St: 8041c600 Sz: 128 	 Sm: 0 	 T: rdma(0.170831)
F:  4392265----T:  4392518 	 St: 8041c680 Sz: 128 	 Sm: 0 	 T: rdma(0.170831)
F:  4392518----T:  4392771 	 St: 8041c760 Sz: 32 	 Sm: 0 	 T: rdma(0.170831)
F:  4392771----T:  4393024 	 St: 8041c780 Sz: 128 	 Sm: 0 	 T: rdma(0.170831)
F:  4393024----T:  4393277 	 St: 8041cb00 Sz: 128 	 Sm: 0 	 T: rdma(0.170831)
F:  4393277----T:  4393530 	 St: 80434100 Sz: 128 	 Sm: 0 	 T: rdma(0.170831)
F:  4393530----T:  4393783 	 St: 804341c0 Sz: 64 	 Sm: 0 	 T: rdma(0.170831)
F:  4393783----T:  4394036 	 St: 80434200 Sz: 128 	 Sm: 0 	 T: rdma(0.170831)
F:  4394036----T:  4394289 	 St: 80434280 Sz: 128 	 Sm: 0 	 T: rdma(0.170831)
F:  4394289----T:  4394542 	 St: 80434300 Sz: 64 	 Sm: 0 	 T: rdma(0.170831)
F:  4394542----T:  4394795 	 St: 80434380 Sz: 128 	 Sm: 0 	 T: rdma(0.170831)
F:  4394795----T:  4395048 	 St: 8041c000 Sz: 128 	 Sm: 0 	 T: rdma(0.170831)
F:  4395048----T:  4395301 	 St: 8041c0e0 Sz: 32 	 Sm: 0 	 T: rdma(0.170831)
F:  4395301----T:  4395554 	 St: 8042c220 Sz: 32 	 Sm: 0 	 T: rdma(0.170831)
F:  4395554----T:  4395807 	 St: 8042c280 Sz: 128 	 Sm: 0 	 T: rdma(0.170831)
F:  4395807----T:  4396060 	 St: 8042c340 Sz: 32 	 Sm: 0 	 T: rdma(0.170831)
F:  4396060----T:  4396313 	 St: 8042c380 Sz: 32 	 Sm: 0 	 T: rdma(0.170831)
F:  4396313----T:  4396566 	 St: 8042c400 Sz: 128 	 Sm: 0 	 T: rdma(0.170831)
F:  4396566----T:  4396819 	 St: 8042c480 Sz: 128 	 Sm: 0 	 T: rdma(0.170831)
F:  4396819----T:  4397072 	 St: 8042ce20 Sz: 32 	 Sm: 0 	 T: rdma(0.170831)
F:  4397072----T:  4397325 	 St: 8042cee0 Sz: 32 	 Sm: 0 	 T: rdma(0.170831)
F:  4397325----T:  4397578 	 St: 8042cf00 Sz: 128 	 Sm: 0 	 T: rdma(0.170831)
F:  4397578----T:  4397831 	 St: 80434700 Sz: 128 	 Sm: 0 	 T: rdma(0.170831)
F:  4397831----T:  4398084 	 St: 80434780 Sz: 128 	 Sm: 0 	 T: rdma(0.170831)
F:  4398084----T:  4398337 	 St: 80434800 Sz: 128 	 Sm: 0 	 T: rdma(0.170831)
F:  4398337----T:  4398590 	 St: 80435980 Sz: 128 	 Sm: 0 	 T: rdma(0.170831)
F:  4398590----T:  4398843 	 St: 80435a00 Sz: 128 	 Sm: 0 	 T: rdma(0.170831)
F:  4398843----T:  4399096 	 St: 80435a80 Sz: 128 	 Sm: 0 	 T: rdma(0.170831)
F:  4399096----T:  4399349 	 St: 80435b00 Sz: 128 	 Sm: 0 	 T: rdma(0.170831)
F:  4399349----T:  4399602 	 St: 80435340 Sz: 32 	 Sm: 0 	 T: rdma(0.170831)
F:  4399602----T:  4399855 	 St: 80435380 Sz: 128 	 Sm: 0 	 T: rdma(0.170831)
F:  4399855----T:  4400108 	 St: 80435460 Sz: 32 	 Sm: 0 	 T: rdma(0.170831)
F:  4400108----T:  4400361 	 St: 804354a0 Sz: 32 	 Sm: 0 	 T: rdma(0.170831)
F:  4400361----T:  4400614 	 St: 80435500 Sz: 128 	 Sm: 0 	 T: rdma(0.170831)
F:  4400614----T:  4400874 	 St: 8041c000 Sz: 4096 	 Sm: 0 	 T: memcpy_h2d(0.175557)
F:  4400874----T:  4401134 	 St: 8042c000 Sz: 4096 	 Sm: 0 	 T: memcpy_h2d(0.175557)
F:  4401134----T:  4401394 	 St: 80434000 Sz: 4096 	 Sm: 0 	 T: memcpy_h2d(0.175557)
F:  4401394----T:  4401654 	 St: 80435000 Sz: 4096 	 Sm: 0 	 T: memcpy_h2d(0.175557)
F:  4645431----T:  4647509 	 	 	 Kl: 16 	 Sm: 0 	 T: kernel_launch(1.403106)
F:  4647509----T:  4647762 	 St: 80000000 Sz: 1 	 Sm: 0 	 T: memcpy_d2h(0.170831)
F:  4647763----T:  4648016 	 St: 80000000 Sz: 1 	 Sm: 0 	 T: memcpy_h2d(0.170831)
F:  4870167----T:  4875665 	 	 	 Kl: 17 	 Sm: 0 	 T: kernel_launch(3.712357)
F:  4871079----T:  4871332 	 St: 80324120 Sz: 32 	 Sm: 0 	 T: rdma(0.170831)
F:  4871332----T:  4871585 	 St: 803241a0 Sz: 32 	 Sm: 0 	 T: rdma(0.170831)
F:  4871585----T:  4871838 	 St: 80324300 Sz: 32 	 Sm: 0 	 T: rdma(0.170831)
F:  4871838----T:  4872091 	 St: 8030c7c0 Sz: 32 	 Sm: 0 	 T: rdma(0.170831)
F:  4872091----T:  4872344 	 St: 80324520 Sz: 32 	 Sm: 0 	 T: rdma(0.170831)
F:  4872344----T:  4872597 	 St: 803245a0 Sz: 32 	 Sm: 0 	 T: rdma(0.170831)
F:  4872597----T:  4872850 	 St: 803898e0 Sz: 32 	 Sm: 0 	 T: rdma(0.170831)
F:  4872850----T:  4873103 	 St: 80389940 Sz: 32 	 Sm: 0 	 T: rdma(0.170831)
F:  4873103----T:  4873356 	 St: 8039c200 Sz: 32 	 Sm: 0 	 T: rdma(0.170831)
F:  4873356----T:  4873609 	 St: 80389660 Sz: 32 	 Sm: 0 	 T: rdma(0.170831)
F:  4873609----T:  4873862 	 St: 8039c620 Sz: 32 	 Sm: 0 	 T: rdma(0.170831)
F:  5097815----T:  5098907 	 	 	 Kl: 18 	 Sm: 0 	 T: kernel_launch(0.737340)
F:  5098907----T:  5099160 	 St: 80000000 Sz: 1 	 Sm: 0 	 T: memcpy_d2h(0.170831)
F:  5099161----T:  5099414 	 St: 80000000 Sz: 1 	 Sm: 0 	 T: memcpy_h2d(0.170831)
F:  5321565----T:  5323791 	 	 	 Kl: 19 	 Sm: 0 	 T: kernel_launch(1.503039)
F:  5545941----T:  5546913 	 	 	 Kl: 20 	 Sm: 0 	 T: kernel_launch(0.656313)
F:  5546913----T:  5547166 	 St: 80000000 Sz: 1 	 Sm: 0 	 T: memcpy_d2h(0.170831)
F:  5547167----T:  5547427 	 St: 0 Sz: 4096 	 Sm: 0 	 T: device_sync(0.175557)
F:  5547167----T:  5547991 	 St: 0 Sz: 61440 	 Sm: 0 	 T: device_sync(0.556381)
F:  5548251----T:  5548511 	 St: 0 Sz: 4096 	 Sm: 0 	 T: device_sync(0.175557)
F:  5548251----T:  5549075 	 St: 0 Sz: 61440 	 Sm: 0 	 T: device_sync(0.556381)
F:  5549335----T:  5549595 	 St: 0 Sz: 4096 	 Sm: 0 	 T: device_sync(0.175557)
F:  5549335----T:  5550904 	 St: 0 Sz: 126976 	 Sm: 0 	 T: device_sync(1.059419)
F:  5551164----T:  5551424 	 St: 0 Sz: 4096 	 Sm: 0 	 T: device_sync(0.175557)
F:  5551164----T:  5553484 	 St: 0 Sz: 192512 	 Sm: 0 	 T: device_sync(1.566509)
Tot_prefetch_time: 0(cycle), 0.000000(us)
Tot_kernel_exec_time: 1099087(cycle), 742.124939(us)
Tot_kernel_exec_time_and_fault_time: 19026592(cycle), 12847.125000(us)
Tot_memcpy_h2d_time: 95879(cycle), 64.739365(us)
Tot_memcpy_d2h_time: 2530(cycle), 1.708305(us)
Tot_memcpy_time: 98409(cycle), 66.447670(us)
Tot_devicesync_time: 6577(cycle), 4.440918(us)
Tot_writeback_time: 0(cycle), 0.000000(us)
Tot_rdma_time: 855393(cycle), 577.578003(us)
Tot_memcpy_d2h_sync_wb_time: 9107(cycle), 6.149223(us)
GPGPU-Sim: *** exit detected ***
