

        *** GPGPU-Sim Simulator Version 3.2.2  [build gpgpu-sim_git-commit-1c1adf09f9d1bccf70ff97255c2b46b40ff0e800_modified_0] ***


GPGPU-Sim PTX: simulation mode 0 (can change with PTX_SIM_MODE_FUNC environment variable:
               1=functional simulation only, 0=detailed performance simulator)
GPGPU-Sim: Configuration options:

-network_mode                           1 # Interconnection network mode
-inter_config_file   config_fermi_islip.icnt # Interconnection network config file
-gpgpu_ptx_use_cuobjdump                    1 # Use cuobjdump to extract ptx and sass from binaries
-gpgpu_experimental_lib_support                    0 # Try to extract code from cuda libraries [Broken because of unknown cudaGetExportTable]
-gpgpu_ptx_convert_to_ptxplus                    0 # Convert SASS (native ISA) to ptxplus and run ptxplus
-gpgpu_ptx_force_max_capability                   20 # Force maximum compute capability
-gpgpu_ptx_inst_debug_to_file                    0 # Dump executed instructions' debug information to file
-gpgpu_ptx_inst_debug_file       inst_debug.txt # Executed instructions' debug output file
-gpgpu_ptx_inst_debug_thread_uid                    1 # Thread UID for executed instructions' debug output
-gpgpu_simd_model                       1 # 1 = post-dominator
-gpgpu_shader_core_pipeline              2048:32 # shader core pipeline config, i.e., {<nthread>:<warpsize>}
-gpgpu_tex_cache:l1  16:128:24,L:R:m:N:L,F:128:4,128:2 # per-shader L1 texture cache  (READ-ONLY) config  {<nsets>:<bsize>:<assoc>,<rep>:<wr>:<alloc>:<wr_alloc>,<mshr>:<N>:<merge>,<mq>:<rf>}
-gpgpu_const_cache:l1 128:64:2,L:R:f:N:L,A:2:64,4 # per-shader L1 constant memory cache  (READ-ONLY) config  {<nsets>:<bsize>:<assoc>,<rep>:<wr>:<alloc>:<wr_alloc>,<mshr>:<N>:<merge>,<mq>} 
-gpgpu_cache:il1     8:128:4,L:R:f:N:L,A:2:48,4 # shader L1 instruction cache config  {<nsets>:<bsize>:<assoc>,<rep>:<wr>:<alloc>:<wr_alloc>,<mshr>:<N>:<merge>,<mq>} 
-gpgpu_cache:dl1     64:128:6,L:L:m:N:H,A:128:8,8 # per-shader L1 data cache config  {<nsets>:<bsize>:<assoc>,<rep>:<wr>:<alloc>:<wr_alloc>,<mshr>:<N>:<merge>,<mq> | none}
-gpgpu_cache:dl1PrefL1                 none # per-shader L1 data cache config  {<nsets>:<bsize>:<assoc>,<rep>:<wr>:<alloc>:<wr_alloc>,<mshr>:<N>:<merge>,<mq> | none}
-gpgpu_cache:dl1PrefShared                 none # per-shader L1 data cache config  {<nsets>:<bsize>:<assoc>,<rep>:<wr>:<alloc>:<wr_alloc>,<mshr>:<N>:<merge>,<mq> | none}
-gmem_skip_L1D                          1 # global memory access skip L1D cache (implements -Xptxas -dlcm=cg, default=no skip)
-gpgpu_perfect_mem                      0 # enable perfect memory mode (no cache miss)
-n_regfile_gating_group                    4 # group of lanes that should be read/written together)
-gpgpu_clock_gated_reg_file                    0 # enable clock gated reg file for power calculations
-gpgpu_clock_gated_lanes                    0 # enable clock gated lanes for power calculations
-gpgpu_shader_registers                65536 # Number of registers per shader core. Limits number of concurrent CTAs. (default 8192)
-gpgpu_shader_cta                      32 # Maximum number of concurrent CTAs in shader (default 8)
-gpgpu_num_cta_barriers                   16 # Maximum number of named barriers per CTA (default 16)
-gpgpu_n_clusters                      28 # number of processing clusters
-gpgpu_n_cores_per_cluster                    1 # number of simd cores per cluster
-gpgpu_n_cluster_ejection_buffer_size                    8 # number of packets in ejection buffer
-gpgpu_n_ldst_response_buffer_size                    2 # number of response packets in ld/st unit ejection buffer
-gpgpu_shmem_size                   16384 # Size of shared memory per shader core (default 16kB)
-gpgpu_shmem_size                   98304 # Size of shared memory per shader core (default 16kB)
-gpgpu_shmem_size_PrefL1                16384 # Size of shared memory per shader core (default 16kB)
-gpgpu_shmem_size_PrefShared                16384 # Size of shared memory per shader core (default 16kB)
-gpgpu_shmem_num_banks                   32 # Number of banks in the shared memory in each shader core (default 16)
-gpgpu_shmem_limited_broadcast                    0 # Limit shared memory to do one broadcast per cycle (default on)
-gpgpu_shmem_warp_parts                    1 # Number of portions a warp is divided into for shared memory bank conflict check 
-gpgpu_warpdistro_shader                   -1 # Specify which shader core to collect the warp size distribution from
-gpgpu_warp_issue_shader                    0 # Specify which shader core to collect the warp issue distribution from
-gpgpu_local_mem_map                    1 # Mapping from local memory space address to simulated GPU physical address space (default = enabled)
-gpgpu_num_reg_banks                   32 # Number of register banks (default = 8)
-gpgpu_reg_bank_use_warp_id                    0 # Use warp ID in mapping registers to banks (default = off)
-gpgpu_operand_collector_num_units_sp                   20 # number of collector units (default = 4)
-gpgpu_operand_collector_num_units_sfu                    4 # number of collector units (default = 4)
-gpgpu_operand_collector_num_units_mem                    8 # number of collector units (default = 2)
-gpgpu_operand_collector_num_units_gen                    0 # number of collector units (default = 0)
-gpgpu_operand_collector_num_in_ports_sp                    4 # number of collector unit in ports (default = 1)
-gpgpu_operand_collector_num_in_ports_sfu                    1 # number of collector unit in ports (default = 1)
-gpgpu_operand_collector_num_in_ports_mem                    1 # number of collector unit in ports (default = 1)
-gpgpu_operand_collector_num_in_ports_gen                    0 # number of collector unit in ports (default = 0)
-gpgpu_operand_collector_num_out_ports_sp                    4 # number of collector unit in ports (default = 1)
-gpgpu_operand_collector_num_out_ports_sfu                    1 # number of collector unit in ports (default = 1)
-gpgpu_operand_collector_num_out_ports_mem                    1 # number of collector unit in ports (default = 1)
-gpgpu_operand_collector_num_out_ports_gen                    0 # number of collector unit in ports (default = 0)
-gpgpu_coalesce_arch                   13 # Coalescing arch (default = 13, anything else is off for now)
-gpgpu_num_sched_per_core                    2 # Number of warp schedulers per core
-gpgpu_max_insn_issue_per_warp                    2 # Max number of instructions that can be issued per warp in one cycle by scheduler
-gpgpu_simt_core_sim_order                    1 # Select the simulation order of cores in a cluster (0=Fix, 1=Round-Robin)
-gpgpu_pipeline_widths        4,1,1,4,1,1,6 # Pipeline widths ID_OC_SP,ID_OC_SFU,ID_OC_MEM,OC_EX_SP,OC_EX_SFU,OC_EX_MEM,EX_WB
-gpgpu_num_sp_units                     4 # Number of SP units (default=1)
-gpgpu_num_sfu_units                    1 # Number of SF units (default=1)
-gpgpu_num_mem_units                    1 # Number if ldst units (default=1) WARNING: not hooked up to anything
-gpgpu_scheduler                      gto # Scheduler configuration: < lrr | gto | two_level_active > If two_level_active:<num_active_warps>:<inner_prioritization>:<outer_prioritization>For complete list of prioritization values see shader.h enum scheduler_prioritization_typeDefault: gto
-gpgpu_concurrent_kernel_sm                    0 # Support concurrent kernels on a SM (default = disabled)
-tlb_size                            4096 # Number of tlb entries per SM.
-gpgpu_dram_scheduler                    1 # 0 = fifo, 1 = FR-FCFS (defaul)
-gpgpu_dram_partition_queues              8:8:8:8 # i2$:$2d:d2$:$2i
-l2_ideal                               0 # Use a ideal L2 cache that always hit
-gpgpu_cache:dl2     64:128:16,L:B:m:W:L,A:1024:1024,4:0,32 # unified banked L2 data cache config  {<nsets>:<bsize>:<assoc>,<rep>:<wr>:<alloc>:<wr_alloc>,<mshr>:<N>:<merge>,<mq>}
-gpgpu_cache:dl2_texture_only                    0 # L2 cache used for texture only
-gpgpu_n_mem                           11 # number of memory modules (e.g. memory controllers) in gpu
-gpgpu_n_sub_partition_per_mchannel                    2 # number of memory subpartition in each memory module
-gpgpu_n_mem_per_ctrlr                    1 # number of memory chips per memory controller
-gpgpu_memlatency_stat                   14 # track and display latency statistics 0x2 enables MC, 0x4 enables queue logs
-gpgpu_frfcfs_dram_sched_queue_size                   64 # 0 = unlimited (default); # entries per chip
-gpgpu_dram_return_queue_size                  116 # 0 = unlimited (default); # entries per chip
-gpgpu_dram_buswidth                    4 # default = 4 bytes (8 bytes per cycle at DDR)
-gpgpu_dram_burst_length                    8 # Burst length of each DRAM request (default = 4 data bus cycle)
-dram_data_command_freq_ratio                    4 # Frequency ratio between DRAM data bus and command bus (default = 2 times, i.e. DDR)
-gpgpu_dram_timing_opt nbk=16:CCD=2:RRD=6:RCD=12:RAS=28:RP=12:RC=40: CL=12:WL=4:CDLR=5:WR=12:nbkgrp=1:CCDL=0:RTPL=0 # DRAM timing parameters = {nbk:tCCD:tRRD:tRCD:tRAS:tRP:tRC:CL:WL:tCDLR:tWR:nbkgrp:tCCDL:tRTPL}
-rop_latency                          120 # ROP queue latency (default 85)
-dram_latency                         100 # DRAM latency (default 30)
-gpgpu_mem_addr_mapping dramid@8;00000000.00000000.00000000.00000000.0000RRRR.RRRRRRRR.RBBBCCCC.BCCSSSSS # mapping memory address to dram model {dramid@<start bit>;<memory address map>}
-gpgpu_mem_addr_test                    0 # run sweep test to check address mapping for aliased address
-gpgpu_mem_address_mask                    1 # 0 = old addressing mask, 1 = new addressing mask, 2 = new add. mask + flipped bank sel and chip sel bits
-gpuwattch_xml_file  gpuwattch_geforcegtx1080ti.xml # GPUWattch XML file
-power_simulation_enabled                    1 # Turn on power simulator (1=On, 0=Off)
-power_per_cycle_dump                    0 # Dump detailed power output each cycle
-power_trace_enabled                    0 # produce a file for the power trace (1=On, 0=Off)
-power_trace_zlevel                     6 # Compression level of the power trace output log (0=no comp, 9=highest)
-steady_power_levels_enabled                    0 # produce a file for the steady power levels (1=On, 0=Off)
-steady_state_definition                  8:4 # allowed deviation:number of samples
-gpgpu_max_cycle                        0 # terminates gpu simulation early (0 = no limit)
-gpgpu_max_insn                         0 # terminates gpu simulation early (0 = no limit)
-gpgpu_max_cta                          0 # terminates gpu simulation early (0 = no limit)
-gpgpu_runtime_stat                   500 # display runtime statistics such as dram utilization {<freq>:<flag>}
-liveness_message_freq                    1 # Minimum number of seconds between simulation liveness messages (0 = always print)
-gpgpu_flush_l1_cache                    0 # Flush L1 cache at the end of each kernel call
-gpgpu_flush_l2_cache                    0 # Flush L2 cache at the end of each kernel call
-gpgpu_deadlock_detect                    0 # Stop the simulation at deadlock (1=on (default), 0=off)
-gpgpu_ptx_instruction_classification                    0 # if enabled will classify ptx instruction types per kernel (Max 255 kernels now)
-gpgpu_ptx_sim_mode                     0 # Select between Performance (default) or Functional simulation (1)
-gpgpu_clock_domains 1481.0:2962.0:1481.0:2750.0 # Clock Domain Frequencies in MhZ {<Core Clock>:<ICNT Clock>:<L2 Clock>:<DRAM Clock>}
-gpgpu_max_concurrent_kernel                    8 # maximum kernels that can run concurrently on GPU
-gpgpu_cflog_interval                    0 # Interval between each snapshot in control flow logger
-visualizer_enabled                     0 # Turn on visualizer output (1=On, 0=Off)
-visualizer_outputfile                 NULL # Specifies the output log file for visualizer
-visualizer_zlevel                      6 # Compression level of the visualizer output log (0=no comp, 9=highest)
-trace_enabled                          0 # Turn on traces
-trace_components                    none # comma seperated list of traces to enable. Complete list found in trace_streams.tup. Default none
-trace_sampling_core                    0 # The core which is printed using CORE_DPRINTF. Default 0
-trace_sampling_memory_partition                   -1 # The memory partition which is printed using MEMPART_DPRINTF. Default -1 (i.e. all)
-gddr_size                          9.6MB # Size of GDDR in MB/GB.(GLOBAL_HEAP_START, GLOBAL_HEAP_START + gddr_size) would be used for unmanged memory, (GLOBAL_HEAP_START + gddr_size, GLOBAL_HEAP_START + gddr_size*2) would be used for managed memory. 
-page_table_walk_latency                  100 # Average page table walk latency (in core cycle).
-eviction_policy                        1 # Select page eviction policy
-invalidate_clean                       0 # Should directly invalidate clean pages
-reserve_accessed_page_percent                    0 # Percentage of accessed pages reserved from eviction in hope that they will be accessed in next iteration.
-percentage_of_free_page_buffer                    0 # Percentage of free page buffer to trigger the page eviction.
-page_size                            4KB # GDDR page size, only 4KB/2MB avaliable.
-pcie_bandwidth                  16.0GB/s # PCI-e bandwidth per direction, in GB/s.
-enable_dma                             0 # Enable direct access to CPU memory
-multiply_dma_penalty                    2 # Oversubscription Multiplicative Penalty Factor for Adaptive DMA
-migrate_threshold                      8 # Access counter threshold for migrating the page from cpu to gpu
-sim_prof_enable                        1 # Enable gpgpu-sim profiler
-hardware_prefetch                      1 # Select gpgpu-sim hardware prefetcher
-hwprefetch_oversub                     1 # Select gpgpu-sim hardware prefetcher under over-subscription
-page_fault_latency                 66645 # Average fault latency (in core cycle).
-enable_accurate_simulation                    0 # Enable page fault functional simulation.
-enable_ptx_file_line_stats                    1 # Turn on PTX source line statistic profiling. (1 = On)
-ptx_line_stats_filename gpgpu_inst_stats.txt # Output file for PTX source line statistics.
-gpgpu_kernel_launch_latency               222150 # Kernel launch latency in cycles. Default: 0
-gpgpu_cdp_enabled                      0 # Turn on CDP
-save_embedded_ptx                      0 # saves ptx files embedded in binary as <n>.ptx
-keep                                   0 # keep intermediate files created by GPGPU-Sim when interfacing with external programs
-gpgpu_ptx_save_converted_ptxplus                    0 # Saved converted ptxplus to a file
-ptx_opcode_latency_int         4,13,4,5,145 # Opcode latencies for integers <ADD,MAX,MUL,MAD,DIV>Default 1,1,19,25,145
-ptx_opcode_latency_fp          4,13,4,5,39 # Opcode latencies for single precision floating points <ADD,MAX,MUL,MAD,DIV>Default 1,1,1,1,30
-ptx_opcode_latency_dp         8,19,8,8,330 # Opcode latencies for double precision floating points <ADD,MAX,MUL,MAD,DIV>Default 8,8,8,8,335
-ptx_opcode_initiation_int            1,2,2,2,8 # Opcode initiation intervals for integers <ADD,MAX,MUL,MAD,DIV>Default 1,1,4,4,32
-ptx_opcode_initiation_fp            1,2,1,1,4 # Opcode initiation intervals for single precision floating points <ADD,MAX,MUL,MAD,DIV>Default 1,1,1,1,5
-ptx_opcode_initiation_dp          1,2,1,1,130 # Opcode initiation intervals for double precision floating points <ADD,MAX,MUL,MAD,DIV>Default 8,8,8,8,130
-cdp_latency         7200,8000,100,12000,1600 # CDP API latency <cudaStreamCreateWithFlags, cudaGetParameterBufferV2_init_perWarp, cudaGetParameterBufferV2_perKernel, cudaLaunchDeviceV2_init_perWarp, cudaLaunchDevicV2_perKernel>Default 7200,8000,100,12000,1600
DRAM Timing Options:
nbk                                    16 # number of banks
CCD                                     2 # column to column delay
RRD                                     6 # minimal delay between activation of rows in different banks
RCD                                    12 # row to column delay
RAS                                    28 # time needed to activate row
RP                                     12 # time needed to precharge (deactivate) row
RC                                     40 # row cycle time
CDLR                                    5 # switching from write to read (changes tWTR)
WR                                     12 # last data-in to row precharge
CL                                     12 # CAS latency
WL                                      4 # Write latency
nbkgrp                                  1 # number of bank groups
CCDL                                    0 # column to column delay between accesses to different bank groups
RTPL                                    0 # read to precharge delay between accesses to different bank groups
Total number of memory sub partition = 22
addr_dec_mask[CHIP]  = 0000000000000000 	high:64 low:0
addr_dec_mask[BK]    = 0000000000007080 	high:15 low:7
addr_dec_mask[ROW]   = 000000000fff8000 	high:28 low:15
addr_dec_mask[COL]   = 0000000000000f7f 	high:12 low:0
addr_dec_mask[BURST] = 000000000000001f 	high:5 low:0
sub_partition_id_mask = 0000000000000080
GPGPU-Sim uArch: clock freqs: 1481000000.000000:2962000000.000000:1481000000.000000:2750000000.000000
GPGPU-Sim uArch: clock periods: 0.00000000067521944632:0.00000000033760972316:0.00000000067521944632:0.00000000036363636364
*** Initializing Memory Statistics ***
GPGPU-Sim uArch: interconnect node map (shaderID+MemID to icntID)
GPGPU-Sim uArch: Memory nodes ID start from index: 28
GPGPU-Sim uArch:    0   1   2   3   4   5   6
GPGPU-Sim uArch:    7   8   9  10  11  12  13
GPGPU-Sim uArch:   14  15  16  17  18  19  20
GPGPU-Sim uArch:   21  22  23  24  25  26  27
GPGPU-Sim uArch:   28  29  30  31  32  33  34
GPGPU-Sim uArch:   35  36  37  38  39  40  41
GPGPU-Sim uArch:   42  43  44  45  46  47  48
GPGPU-Sim uArch:   49
GPGPU-Sim uArch: interconnect node reverse map (icntID to shaderID+MemID)
GPGPU-Sim uArch: Memory nodes start from ID: 28
GPGPU-Sim uArch:    0   1   2   3   4   5   6
GPGPU-Sim uArch:    7   8   9  10  11  12  13
GPGPU-Sim uArch:   14  15  16  17  18  19  20
GPGPU-Sim uArch:   21  22  23  24  25  26  27
GPGPU-Sim uArch:   28  29  30  31  32  33  34
GPGPU-Sim uArch:   35  36  37  38  39  40  41
GPGPU-Sim uArch:   42  43  44  45  46  47  48
GPGPU-Sim uArch:   49
503228a84c5acce04febe5a767a6866d  /root/gpgpu-sim_UVMSmart/benchmarks/Managed/hotspot/hotspot
GPGPU-Sim uArch: performance model initialization complete.
GPGPU-Sim PTX: __cudaRegisterFatBinary, fat_cubin_handle = 1, filename=default
self exe links to: /root/gpgpu-sim_UVMSmart/benchmarks/Managed/hotspot/hotspot
Running md5sum using "md5sum /root/gpgpu-sim_UVMSmart/benchmarks/Managed/hotspot/hotspot "
Parsing file _cuobjdump_complete_output_ByeYjl
######### cuobjdump parser ########
## Adding new section ELF
Adding arch: sm_20
Adding identifier: default
## Adding new section ELF
Adding arch: sm_20
Adding identifier: default
## Adding new section PTX
Adding ptx filename: _cuobjdump_1.ptx
Adding arch: sm_20
Adding identifier: default
Done parsing!!!
GPGPU-Sim PTX: __cudaRegisterFunction _Z14calculate_tempiPfS_S_iiiiffffff : hostFun 0x0x401ae2, fat_cubin_handle = 1
GPGPU-Sim PTX: allocating shared region for "_Z14calculate_tempiPfS_S_iiiiffffff$__cuda_local_var_16165_39_non_const_temp_on_cuda" from 0x0 to 0x400 (shared memory space)
GPGPU-Sim PTX: allocating shared region for "_Z14calculate_tempiPfS_S_iiiiffffff$__cuda_local_var_16166_39_non_const_power_on_cuda" from 0x400 to 0x800 (shared memory space)
GPGPU-Sim PTX: allocating shared region for "_Z14calculate_tempiPfS_S_iiiiffffff$__cuda_local_var_16167_39_non_const_temp_t" from 0x800 to 0xc00 (shared memory space)
GPGPU-Sim PTX: instruction assembly for function '_Z14calculate_tempiPfS_S_iiiiffffff'...   done.
GPGPU-Sim PTX: finding reconvergence points for '_Z14calculate_tempiPfS_S_iiiiffffff'...
GPGPU-Sim PTX: Finding dominators for '_Z14calculate_tempiPfS_S_iiiiffffff'...
GPGPU-Sim PTX: Finding immediate dominators for '_Z14calculate_tempiPfS_S_iiiiffffff'...
GPGPU-Sim PTX: Finding postdominators for '_Z14calculate_tempiPfS_S_iiiiffffff'...
GPGPU-Sim PTX: Finding immediate postdominators for '_Z14calculate_tempiPfS_S_iiiiffffff'...
GPGPU-Sim PTX: pre-decoding instructions for '_Z14calculate_tempiPfS_S_iiiiffffff'...
GPGPU-Sim PTX: reconvergence points for _Z14calculate_tempiPfS_S_iiiiffffff...
GPGPU-Sim PTX:  1 (potential) branch divergence @  PC=0x118 (_1.ptx:82) @!%p7 bra BB0_2;
GPGPU-Sim PTX:    immediate post dominator      @  PC=0x1b8 (_1.ptx:106) bar.sync 0;
GPGPU-Sim PTX:  2 (potential) branch divergence @  PC=0x120 (_1.ptx:83) bra.uni BB0_1;
GPGPU-Sim PTX:    immediate post dominator      @  PC=0x128 (_1.ptx:86) mad.lo.s32 %r27, %r1, %r10, %r2;
GPGPU-Sim PTX:  3 (potential) branch divergence @  PC=0x1c8 (_1.ptx:108) @%p8 bra BB0_11;
GPGPU-Sim PTX:    immediate post dominator      @  PC=0x5b0 (_1.ptx:247) and.b16 %rs7, %rs8, 255;
GPGPU-Sim PTX:  4 (potential) branch divergence @  PC=0x338 (_1.ptx:157) @!%p15 bra BB0_7;
GPGPU-Sim PTX:    immediate post dominator      @  PC=0x538 (_1.ptx:226) bar.sync 0;
GPGPU-Sim PTX:  5 (potential) branch divergence @  PC=0x340 (_1.ptx:158) bra.uni BB0_5;
GPGPU-Sim PTX:    immediate post dominator      @  PC=0x348 (_1.ptx:161) setp.gt.s32%p16, %r23, %r6;
GPGPU-Sim PTX:  6 (potential) branch divergence @  PC=0x3d0 (_1.ptx:178) @%p28 bra BB0_7;
GPGPU-Sim PTX:    immediate post dominator      @  PC=0x538 (_1.ptx:226) bar.sync 0;
GPGPU-Sim PTX:  7 (potential) branch divergence @  PC=0x548 (_1.ptx:228) @%p31 bra BB0_11;
GPGPU-Sim PTX:    immediate post dominator      @  PC=0x5b0 (_1.ptx:247) and.b16 %rs7, %rs8, 255;
GPGPU-Sim PTX:  8 (potential) branch divergence @  PC=0x558 (_1.ptx:231) @%p32 bra BB0_10;
GPGPU-Sim PTX:    immediate post dominator      @  PC=0x590 (_1.ptx:241) bar.sync 0;
GPGPU-Sim PTX:  9 (potential) branch divergence @  PC=0x5a8 (_1.ptx:244) @%p33 bra BB0_4;
GPGPU-Sim PTX:    immediate post dominator      @  PC=0x5b0 (_1.ptx:247) and.b16 %rs7, %rs8, 255;
GPGPU-Sim PTX: 10 (potential) branch divergence @  PC=0x5c0 (_1.ptx:249) @%p34 bra BB0_13;
GPGPU-Sim PTX:    immediate post dominator      @  PC=0x620 (_1.ptx:264) ret;
GPGPU-Sim PTX: ... end of reconvergence points for _Z14calculate_tempiPfS_S_iiiiffffff
GPGPU-Sim PTX: ... done pre-decoding instructions for '_Z14calculate_tempiPfS_S_iiiiffffff'.
GPGPU-Sim PTX: finished parsing EMBEDDED .ptx file _1.ptx
Adding _cuobjdump_1.ptx with cubin handle 1
GPGPU-Sim PTX: extracting embedded .ptx to temporary file "_ptx_inD1gQ"
Running: cat _ptx_inD1gQ | sed 's/.version 1.5/.version 1.4/' | sed 's/, texmode_independent//' | sed 's/\(\.extern \.const\[1\] .b8 \w\+\)\[\]/\1\[1\]/' | sed 's/const\[.\]/const\[0\]/g' > _ptx2_ZKk6dl
GPGPU-Sim PTX: generating ptxinfo using "$CUDA_INSTALL_PATH/bin/ptxas --gpu-name=sm_20 -v _ptx2_ZKk6dl --output-file  /dev/null 2> _ptx_inD1gQinfo"
GPGPU-Sim PTX: Kernel '_Z14calculate_tempiPfS_S_iiiiffffff' : regs=34, lmem=0, smem=3072, cmem=120
GPGPU-Sim PTX: removing ptxinfo using "rm -f _ptx_inD1gQ _ptx2_ZKk6dl _ptx_inD1gQinfo"
GPGPU-Sim PTX: loading globals with explicit initializers... 
GPGPU-Sim PTX: finished loading globals (0 bytes total).
GPGPU-Sim PTX: loading constants with explicit initializers...  done.
WG size of kernel = 16 X 16
pyramidHeight: 2
gridSize: [1024, 1024]
border:[2, 2]
blockGrid:[86, 86]
targetBlock:[12, 12]
Start computing the transient temperature

GPGPU-Sim PTX: cudaLaunch for 0x0x401ae2 (mode=performance simulation) on stream 0
GPGPU-Sim PTX: pushing kernel '_Z14calculate_tempiPfS_S_iiiiffffff' to stream 0, gridDim= (86,86,1) blockDim = (16,16,1) 
GPGPU-Sim uArch: Shader 1 bind to kernel 1 '_Z14calculate_tempiPfS_S_iiiiffffff'
GPGPU-Sim uArch: CTA/core = 7, limited by: regs
GPGPU-Sim uArch: Shader 2 bind to kernel 1 '_Z14calculate_tempiPfS_S_iiiiffffff'
GPGPU-Sim uArch: Shader 3 bind to kernel 1 '_Z14calculate_tempiPfS_S_iiiiffffff'
GPGPU-Sim uArch: Shader 4 bind to kernel 1 '_Z14calculate_tempiPfS_S_iiiiffffff'
GPGPU-Sim uArch: Shader 5 bind to kernel 1 '_Z14calculate_tempiPfS_S_iiiiffffff'
GPGPU-Sim uArch: Shader 6 bind to kernel 1 '_Z14calculate_tempiPfS_S_iiiiffffff'
GPGPU-Sim uArch: Shader 7 bind to kernel 1 '_Z14calculate_tempiPfS_S_iiiiffffff'
GPGPU-Sim uArch: Shader 8 bind to kernel 1 '_Z14calculate_tempiPfS_S_iiiiffffff'
GPGPU-Sim uArch: Shader 9 bind to kernel 1 '_Z14calculate_tempiPfS_S_iiiiffffff'
GPGPU-Sim uArch: Shader 10 bind to kernel 1 '_Z14calculate_tempiPfS_S_iiiiffffff'
GPGPU-Sim uArch: Shader 11 bind to kernel 1 '_Z14calculate_tempiPfS_S_iiiiffffff'
GPGPU-Sim uArch: Shader 12 bind to kernel 1 '_Z14calculate_tempiPfS_S_iiiiffffff'
GPGPU-Sim uArch: Shader 13 bind to kernel 1 '_Z14calculate_tempiPfS_S_iiiiffffff'
GPGPU-Sim uArch: Shader 14 bind to kernel 1 '_Z14calculate_tempiPfS_S_iiiiffffff'
GPGPU-Sim uArch: Shader 15 bind to kernel 1 '_Z14calculate_tempiPfS_S_iiiiffffff'
GPGPU-Sim uArch: Shader 16 bind to kernel 1 '_Z14calculate_tempiPfS_S_iiiiffffff'
GPGPU-Sim uArch: Shader 17 bind to kernel 1 '_Z14calculate_tempiPfS_S_iiiiffffff'
GPGPU-Sim uArch: Shader 18 bind to kernel 1 '_Z14calculate_tempiPfS_S_iiiiffffff'
GPGPU-Sim uArch: Shader 19 bind to kernel 1 '_Z14calculate_tempiPfS_S_iiiiffffff'
GPGPU-Sim uArch: Shader 20 bind to kernel 1 '_Z14calculate_tempiPfS_S_iiiiffffff'
GPGPU-Sim uArch: Shader 21 bind to kernel 1 '_Z14calculate_tempiPfS_S_iiiiffffff'
GPGPU-Sim uArch: Shader 22 bind to kernel 1 '_Z14calculate_tempiPfS_S_iiiiffffff'
GPGPU-Sim uArch: Shader 23 bind to kernel 1 '_Z14calculate_tempiPfS_S_iiiiffffff'
GPGPU-Sim uArch: Shader 24 bind to kernel 1 '_Z14calculate_tempiPfS_S_iiiiffffff'
GPGPU-Sim uArch: Shader 25 bind to kernel 1 '_Z14calculate_tempiPfS_S_iiiiffffff'
GPGPU-Sim uArch: Shader 26 bind to kernel 1 '_Z14calculate_tempiPfS_S_iiiiffffff'
GPGPU-Sim uArch: Shader 27 bind to kernel 1 '_Z14calculate_tempiPfS_S_iiiiffffff'
GPGPU-Sim uArch: Shader 0 bind to kernel 1 '_Z14calculate_tempiPfS_S_iiiiffffff'
GPGPU-Sim uArch: Shader 1 bind to kernel 1 '_Z14calculate_tempiPfS_S_iiiiffffff'
GPGPU-Sim uArch: Shader 2 bind to kernel 1 '_Z14calculate_tempiPfS_S_iiiiffffff'
GPGPU-Sim uArch: Shader 3 bind to kernel 1 '_Z14calculate_tempiPfS_S_iiiiffffff'
GPGPU-Sim uArch: Shader 4 bind to kernel 1 '_Z14calculate_tempiPfS_S_iiiiffffff'
GPGPU-Sim uArch: Shader 7 bind to kernel 1 '_Z14calculate_tempiPfS_S_iiiiffffff'
GPGPU-Sim uArch: Shader 13 bind to kernel 1 '_Z14calculate_tempiPfS_S_iiiiffffff'
GPGPU-Sim uArch: Shader 15 bind to kernel 1 '_Z14calculate_tempiPfS_S_iiiiffffff'
GPGPU-Sim uArch: Shader 17 bind to kernel 1 '_Z14calculate_tempiPfS_S_iiiiffffff'
GPGPU-Sim uArch: Shader 18 bind to kernel 1 '_Z14calculate_tempiPfS_S_iiiiffffff'
GPGPU-Sim uArch: Shader 21 bind to kernel 1 '_Z14calculate_tempiPfS_S_iiiiffffff'
GPGPU-Sim uArch: Shader 24 bind to kernel 1 '_Z14calculate_tempiPfS_S_iiiiffffff'
GPGPU-Sim uArch: Shader 25 bind to kernel 1 '_Z14calculate_tempiPfS_S_iiiiffffff'
GPGPU-Sim uArch: Shader 27 bind to kernel 1 '_Z14calculate_tempiPfS_S_iiiiffffff'
GPGPU-Sim uArch: Shader 0 bind to kernel 1 '_Z14calculate_tempiPfS_S_iiiiffffff'
GPGPU-Sim uArch: Shader 14 bind to kernel 1 '_Z14calculate_tempiPfS_S_iiiiffffff'
GPGPU-Sim uArch: Shader 15 bind to kernel 1 '_Z14calculate_tempiPfS_S_iiiiffffff'
GPGPU-Sim uArch: Shader 18 bind to kernel 1 '_Z14calculate_tempiPfS_S_iiiiffffff'
GPGPU-Sim uArch: Shader 22 bind to kernel 1 '_Z14calculate_tempiPfS_S_iiiiffffff'
GPGPU-Sim uArch: Shader 23 bind to kernel 1 '_Z14calculate_tempiPfS_S_iiiiffffff'
GPGPU-Sim uArch: Shader 27 bind to kernel 1 '_Z14calculate_tempiPfS_S_iiiiffffff'
GPGPU-Sim uArch: Shader 4 bind to kernel 1 '_Z14calculate_tempiPfS_S_iiiiffffff'
GPGPU-Sim uArch: Shader 8 bind to kernel 1 '_Z14calculate_tempiPfS_S_iiiiffffff'
GPGPU-Sim uArch: Shader 11 bind to kernel 1 '_Z14calculate_tempiPfS_S_iiiiffffff'
GPGPU-Sim uArch: Shader 12 bind to kernel 1 '_Z14calculate_tempiPfS_S_iiiiffffff'
GPGPU-Sim uArch: Shader 13 bind to kernel 1 '_Z14calculate_tempiPfS_S_iiiiffffff'
GPGPU-Sim uArch: Shader 15 bind to kernel 1 '_Z14calculate_tempiPfS_S_iiiiffffff'
GPGPU-Sim uArch: Shader 20 bind to kernel 1 '_Z14calculate_tempiPfS_S_iiiiffffff'
GPGPU-Sim uArch: Shader 24 bind to kernel 1 '_Z14calculate_tempiPfS_S_iiiiffffff'
GPGPU-Sim uArch: Shader 4 bind to kernel 1 '_Z14calculate_tempiPfS_S_iiiiffffff'
GPGPU-Sim uArch: Shader 6 bind to kernel 1 '_Z14calculate_tempiPfS_S_iiiiffffff'
GPGPU-Sim uArch: Shader 12 bind to kernel 1 '_Z14calculate_tempiPfS_S_iiiiffffff'
GPGPU-Sim uArch: Shader 13 bind to kernel 1 '_Z14calculate_tempiPfS_S_iiiiffffff'
GPGPU-Sim uArch: Shader 22 bind to kernel 1 '_Z14calculate_tempiPfS_S_iiiiffffff'
GPGPU-Sim uArch: Shader 24 bind to kernel 1 '_Z14calculate_tempiPfS_S_iiiiffffff'
GPGPU-Sim uArch: Shader 9 bind to kernel 1 '_Z14calculate_tempiPfS_S_iiiiffffff'
GPGPU-Sim uArch: Shader 10 bind to kernel 1 '_Z14calculate_tempiPfS_S_iiiiffffff'
GPGPU-Sim uArch: Shader 11 bind to kernel 1 '_Z14calculate_tempiPfS_S_iiiiffffff'
GPGPU-Sim uArch: Shader 12 bind to kernel 1 '_Z14calculate_tempiPfS_S_iiiiffffff'
GPGPU-Sim uArch: Shader 13 bind to kernel 1 '_Z14calculate_tempiPfS_S_iiiiffffff'
GPGPU-Sim uArch: Shader 15 bind to kernel 1 '_Z14calculate_tempiPfS_S_iiiiffffff'
GPGPU-Sim uArch: Shader 16 bind to kernel 1 '_Z14calculate_tempiPfS_S_iiiiffffff'
GPGPU-Sim uArch: Shader 18 bind to kernel 1 '_Z14calculate_tempiPfS_S_iiiiffffff'
GPGPU-Sim uArch: Shader 19 bind to kernel 1 '_Z14calculate_tempiPfS_S_iiiiffffff'
GPGPU-Sim uArch: Shader 20 bind to kernel 1 '_Z14calculate_tempiPfS_S_iiiiffffff'
GPGPU-Sim uArch: Shader 22 bind to kernel 1 '_Z14calculate_tempiPfS_S_iiiiffffff'
GPGPU-Sim uArch: Shader 24 bind to kernel 1 '_Z14calculate_tempiPfS_S_iiiiffffff'
GPGPU-Sim uArch: Shader 26 bind to kernel 1 '_Z14calculate_tempiPfS_S_iiiiffffff'
GPGPU-Sim uArch: Shader 27 bind to kernel 1 '_Z14calculate_tempiPfS_S_iiiiffffff'
GPGPU-Sim uArch: Shader 0 bind to kernel 1 '_Z14calculate_tempiPfS_S_iiiiffffff'
GPGPU-Sim uArch: Shader 1 bind to kernel 1 '_Z14calculate_tempiPfS_S_iiiiffffff'
GPGPU-Sim uArch: Shader 4 bind to kernel 1 '_Z14calculate_tempiPfS_S_iiiiffffff'
GPGPU-Sim uArch: Shader 6 bind to kernel 1 '_Z14calculate_tempiPfS_S_iiiiffffff'
GPGPU-Sim uArch: Shader 7 bind to kernel 1 '_Z14calculate_tempiPfS_S_iiiiffffff'
GPGPU-Sim uArch: Shader 9 bind to kernel 1 '_Z14calculate_tempiPfS_S_iiiiffffff'
GPGPU-Sim uArch: Shader 14 bind to kernel 1 '_Z14calculate_tempiPfS_S_iiiiffffff'
GPGPU-Sim uArch: Shader 17 bind to kernel 1 '_Z14calculate_tempiPfS_S_iiiiffffff'
GPGPU-Sim uArch: Shader 21 bind to kernel 1 '_Z14calculate_tempiPfS_S_iiiiffffff'
GPGPU-Sim uArch: Shader 23 bind to kernel 1 '_Z14calculate_tempiPfS_S_iiiiffffff'
GPGPU-Sim uArch: Shader 25 bind to kernel 1 '_Z14calculate_tempiPfS_S_iiiiffffff'
GPGPU-Sim uArch: Shader 3 bind to kernel 1 '_Z14calculate_tempiPfS_S_iiiiffffff'
GPGPU-Sim uArch: Shader 5 bind to kernel 1 '_Z14calculate_tempiPfS_S_iiiiffffff'
GPGPU-Sim uArch: Shader 7 bind to kernel 1 '_Z14calculate_tempiPfS_S_iiiiffffff'
GPGPU-Sim uArch: Shader 22 bind to kernel 1 '_Z14calculate_tempiPfS_S_iiiiffffff'
GPGPU-Sim uArch: Shader 27 bind to kernel 1 '_Z14calculate_tempiPfS_S_iiiiffffff'
Destroy streams for kernel 1: size 0
kernel_name = _Z14calculate_tempiPfS_S_iiiiffffff 
kernel_launch_uid = 1 
gpu_sim_cycle = 1918016
gpu_sim_insn = 415466464
gpu_ipc =     216.6126
gpu_tot_sim_cycle = 2140166
gpu_tot_sim_insn = 415466464
gpu_tot_ipc =     194.1281
gpu_tot_issued_cta = 7396
max_total_param_size = 0
gpu_stall_dramfull = 47860
gpu_stall_icnt2sh    = 602889
partiton_reqs_in_parallel = 42148492
partiton_reqs_in_parallel_total    = 0
partiton_level_parallism =      21.9750
partiton_level_parallism_total  =      19.6940
partiton_reqs_in_parallel_util = 42148492
partiton_reqs_in_parallel_util_total    = 0
gpu_sim_cycle_parition_util = 1917392
gpu_tot_sim_cycle_parition_util    = 0
partiton_level_parallism_util =      21.9822
partiton_level_parallism_util_total  =      21.9822
partiton_replys_in_parallel = 456444
partiton_replys_in_parallel_total    = 0
L2_BW  =      22.5564 GB/Sec
L2_BW_total  =      20.2151 GB/Sec
gpu_total_sim_rate=141171

========= Core cache stats =========
L1I_cache:
	L1I_total_cache_accesses = 7740000
	L1I_total_cache_misses = 8688
	L1I_total_cache_miss_rate = 0.0011
	L1I_total_cache_pending_hits = 0
	L1I_total_cache_reservation_fails = 6846
L1D_cache:
	L1D_cache_core[0]: Access = 0, Miss = 0, Miss_rate = -nan, Pending_hits = 0, Reservation_fails = 0
	L1D_cache_core[1]: Access = 0, Miss = 0, Miss_rate = -nan, Pending_hits = 0, Reservation_fails = 0
	L1D_cache_core[2]: Access = 0, Miss = 0, Miss_rate = -nan, Pending_hits = 0, Reservation_fails = 0
	L1D_cache_core[3]: Access = 0, Miss = 0, Miss_rate = -nan, Pending_hits = 0, Reservation_fails = 0
	L1D_cache_core[4]: Access = 0, Miss = 0, Miss_rate = -nan, Pending_hits = 0, Reservation_fails = 0
	L1D_cache_core[5]: Access = 0, Miss = 0, Miss_rate = -nan, Pending_hits = 0, Reservation_fails = 0
	L1D_cache_core[6]: Access = 0, Miss = 0, Miss_rate = -nan, Pending_hits = 0, Reservation_fails = 0
	L1D_cache_core[7]: Access = 0, Miss = 0, Miss_rate = -nan, Pending_hits = 0, Reservation_fails = 0
	L1D_cache_core[8]: Access = 0, Miss = 0, Miss_rate = -nan, Pending_hits = 0, Reservation_fails = 0
	L1D_cache_core[9]: Access = 0, Miss = 0, Miss_rate = -nan, Pending_hits = 0, Reservation_fails = 0
	L1D_cache_core[10]: Access = 0, Miss = 0, Miss_rate = -nan, Pending_hits = 0, Reservation_fails = 0
	L1D_cache_core[11]: Access = 0, Miss = 0, Miss_rate = -nan, Pending_hits = 0, Reservation_fails = 0
	L1D_cache_core[12]: Access = 0, Miss = 0, Miss_rate = -nan, Pending_hits = 0, Reservation_fails = 0
	L1D_cache_core[13]: Access = 0, Miss = 0, Miss_rate = -nan, Pending_hits = 0, Reservation_fails = 0
	L1D_cache_core[14]: Access = 0, Miss = 0, Miss_rate = -nan, Pending_hits = 0, Reservation_fails = 0
	L1D_cache_core[15]: Access = 0, Miss = 0, Miss_rate = -nan, Pending_hits = 0, Reservation_fails = 0
	L1D_cache_core[16]: Access = 0, Miss = 0, Miss_rate = -nan, Pending_hits = 0, Reservation_fails = 0
	L1D_cache_core[17]: Access = 0, Miss = 0, Miss_rate = -nan, Pending_hits = 0, Reservation_fails = 0
	L1D_cache_core[18]: Access = 0, Miss = 0, Miss_rate = -nan, Pending_hits = 0, Reservation_fails = 0
	L1D_cache_core[19]: Access = 0, Miss = 0, Miss_rate = -nan, Pending_hits = 0, Reservation_fails = 0
	L1D_cache_core[20]: Access = 0, Miss = 0, Miss_rate = -nan, Pending_hits = 0, Reservation_fails = 0
	L1D_cache_core[21]: Access = 0, Miss = 0, Miss_rate = -nan, Pending_hits = 0, Reservation_fails = 0
	L1D_cache_core[22]: Access = 0, Miss = 0, Miss_rate = -nan, Pending_hits = 0, Reservation_fails = 0
	L1D_cache_core[23]: Access = 0, Miss = 0, Miss_rate = -nan, Pending_hits = 0, Reservation_fails = 0
	L1D_cache_core[24]: Access = 0, Miss = 0, Miss_rate = -nan, Pending_hits = 0, Reservation_fails = 0
	L1D_cache_core[25]: Access = 0, Miss = 0, Miss_rate = -nan, Pending_hits = 0, Reservation_fails = 0
	L1D_cache_core[26]: Access = 0, Miss = 0, Miss_rate = -nan, Pending_hits = 0, Reservation_fails = 0
	L1D_cache_core[27]: Access = 0, Miss = 0, Miss_rate = -nan, Pending_hits = 0, Reservation_fails = 0
	L1D_total_cache_accesses = 0
	L1D_total_cache_misses = 0
	L1D_total_cache_pending_hits = 0
	L1D_total_cache_reservation_fails = 0
	L1D_cache_data_port_util = 0.000
	L1D_cache_fill_port_util = 0.000
L1C_cache:
	L1C_total_cache_accesses = 769184
	L1C_total_cache_misses = 2195
	L1C_total_cache_miss_rate = 0.0029
	L1C_total_cache_pending_hits = 0
	L1C_total_cache_reservation_fails = 4886
L1T_cache:
	L1T_total_cache_accesses = 0
	L1T_total_cache_misses = 0
	L1T_total_cache_pending_hits = 0
	L1T_total_cache_reservation_fails = 0

Total_core_cache_stats:
	Total_core_cache_stats_breakdown[GLOBAL_ACC_R][HIT] = 0
	Total_core_cache_stats_breakdown[GLOBAL_ACC_R][HIT_RESERVED] = 0
	Total_core_cache_stats_breakdown[GLOBAL_ACC_R][MISS] = 0
	Total_core_cache_stats_breakdown[GLOBAL_ACC_R][RESERVATION_FAIL] = 0
	Total_core_cache_stats_breakdown[LOCAL_ACC_R][HIT] = 0
	Total_core_cache_stats_breakdown[LOCAL_ACC_R][HIT_RESERVED] = 0
	Total_core_cache_stats_breakdown[LOCAL_ACC_R][MISS] = 0
	Total_core_cache_stats_breakdown[LOCAL_ACC_R][RESERVATION_FAIL] = 0
	Total_core_cache_stats_breakdown[CONST_ACC_R][HIT] = 766989
	Total_core_cache_stats_breakdown[CONST_ACC_R][HIT_RESERVED] = 0
	Total_core_cache_stats_breakdown[CONST_ACC_R][MISS] = 2195
	Total_core_cache_stats_breakdown[CONST_ACC_R][RESERVATION_FAIL] = 4886
	Total_core_cache_stats_breakdown[TEXTURE_ACC_R][HIT] = 0
	Total_core_cache_stats_breakdown[TEXTURE_ACC_R][HIT_RESERVED] = 0
	Total_core_cache_stats_breakdown[TEXTURE_ACC_R][MISS] = 0
	Total_core_cache_stats_breakdown[TEXTURE_ACC_R][RESERVATION_FAIL] = 0
	Total_core_cache_stats_breakdown[GLOBAL_ACC_W][HIT] = 0
	Total_core_cache_stats_breakdown[GLOBAL_ACC_W][HIT_RESERVED] = 0
	Total_core_cache_stats_breakdown[GLOBAL_ACC_W][MISS] = 0
	Total_core_cache_stats_breakdown[GLOBAL_ACC_W][RESERVATION_FAIL] = 0
	Total_core_cache_stats_breakdown[LOCAL_ACC_W][HIT] = 0
	Total_core_cache_stats_breakdown[LOCAL_ACC_W][HIT_RESERVED] = 0
	Total_core_cache_stats_breakdown[LOCAL_ACC_W][MISS] = 0
	Total_core_cache_stats_breakdown[LOCAL_ACC_W][RESERVATION_FAIL] = 0
	Total_core_cache_stats_breakdown[L1_WRBK_ACC][HIT] = 0
	Total_core_cache_stats_breakdown[L1_WRBK_ACC][HIT_RESERVED] = 0
	Total_core_cache_stats_breakdown[L1_WRBK_ACC][MISS] = 0
	Total_core_cache_stats_breakdown[L1_WRBK_ACC][RESERVATION_FAIL] = 0
	Total_core_cache_stats_breakdown[L2_WRBK_ACC][HIT] = 0
	Total_core_cache_stats_breakdown[L2_WRBK_ACC][HIT_RESERVED] = 0
	Total_core_cache_stats_breakdown[L2_WRBK_ACC][MISS] = 0
	Total_core_cache_stats_breakdown[L2_WRBK_ACC][RESERVATION_FAIL] = 0
	Total_core_cache_stats_breakdown[INST_ACC_R][HIT] = 7731312
	Total_core_cache_stats_breakdown[INST_ACC_R][HIT_RESERVED] = 0
	Total_core_cache_stats_breakdown[INST_ACC_R][MISS] = 8688
	Total_core_cache_stats_breakdown[INST_ACC_R][RESERVATION_FAIL] = 6846
	Total_core_cache_stats_breakdown[L1_WR_ALLOC_R][HIT] = 0
	Total_core_cache_stats_breakdown[L1_WR_ALLOC_R][HIT_RESERVED] = 0
	Total_core_cache_stats_breakdown[L1_WR_ALLOC_R][MISS] = 0
	Total_core_cache_stats_breakdown[L1_WR_ALLOC_R][RESERVATION_FAIL] = 0
	Total_core_cache_stats_breakdown[L2_WR_ALLOC_R][HIT] = 0
	Total_core_cache_stats_breakdown[L2_WR_ALLOC_R][HIT_RESERVED] = 0
	Total_core_cache_stats_breakdown[L2_WR_ALLOC_R][MISS] = 0
	Total_core_cache_stats_breakdown[L2_WR_ALLOC_R][RESERVATION_FAIL] = 0
	Total_core_cache_stats_breakdown[CONST_ACC_R][TOTAL_ACCESS] = 769184
	Total_core_cache_stats_breakdown[INST_ACC_R][TOTAL_ACCESS] = 7740000
Shader 0 warp_id issue ditsribution:
warp_id:
0, 1, 2, 3, 4, 5, 6, 7, 8, 9, 10, 11, 12, 13, 14, 15, 16, 17, 18, 19, 20, 21, 22, 23, 24, 25, 26, 27, 28, 29, 30, 31, 32, 33, 34, 35, 36, 37, 38, 39, 40, 41, 42, 43, 44, 45, 46, 47, 48, 49, 50, 51, 52, 53, 54, 55, 
distro:
9983, 12588, 12612, 12569, 12613, 12565, 12606, 10088, 9729, 12269, 12296, 12256, 12295, 12249, 12289, 9831, 9481, 11964, 11986, 11805, 11838, 11797, 11832, 9506, 9303, 11636, 11659, 11627, 11656, 11620, 11654, 9331, 9551, 11941, 11975, 11779, 11828, 11775, 11828, 9485, 9311, 11624, 11667, 11482, 11522, 11480, 11518, 9247, 9310, 11637, 11666, 11473, 11512, 11471, 11512, 9250, 
gpgpu_n_tot_thrd_icount = 485326208
gpgpu_n_tot_w_icount = 15166444
gpgpu_n_stall_shd_mem = 391350
gpgpu_n_mem_read_local = 0
gpgpu_n_mem_write_local = 0
gpgpu_n_mem_read_global = 346456
gpgpu_n_mem_write_global = 109568
gpgpu_n_mem_texture = 0
gpgpu_n_mem_const = 56
gpgpu_n_load_insn  = 3720992
gpgpu_n_store_insn = 1048576
gpgpu_n_shmem_insn = 24940324
gpgpu_n_tex_insn = 0
gpgpu_n_const_mem_insn = 0
gpgpu_n_param_mem_insn = 24613888
gpgpu_n_shmem_bkconflict = 0
gpgpu_n_cache_bkconflict = 0
gpgpu_n_intrawarp_mshr_merge = 0
gpgpu_n_cmem_portconflict = 4886
gpgpu_stall_shd_mem[c_mem][bk_conf] = 4886
gpgpu_stall_shd_mem[c_mem][mshr_rc] = 0
gpgpu_stall_shd_mem[c_mem][icnt_rc] = 0
gpgpu_stall_shd_mem[c_mem][data_port_stall] = 0
gpgpu_stall_shd_mem[t_mem][mshr_rc] = 0
gpgpu_stall_shd_mem[t_mem][icnt_rc] = 0
gpgpu_stall_shd_mem[t_mem][data_port_stall] = 0
gpgpu_stall_shd_mem[s_mem][bk_conf] = 0
gpgpu_stall_shd_mem[gl_mem][bk_conf] = 0
gpgpu_stall_shd_mem[gl_mem][coal_stall] = 320224
gpgpu_stall_shd_mem[gl_mem][data_port_stall] = 0
gpgpu_stall_shd_mem[g_mem_ld][mshr_rc] = 0
gpgpu_stall_shd_mem[g_mem_ld][icnt_rc] = 66240
gpgpu_stall_shd_mem[g_mem_ld][wb_icnt_rc] = 0
gpgpu_stall_shd_mem[g_mem_ld][wb_rsrv_fail] = 0
gpgpu_stall_shd_mem[g_mem_st][mshr_rc] = 0
gpgpu_stall_shd_mem[g_mem_st][icnt_rc] = 0
gpgpu_stall_shd_mem[g_mem_st][wb_icnt_rc] = 0
gpgpu_stall_shd_mem[g_mem_st][wb_rsrv_fail] = 0
gpgpu_stall_shd_mem[l_mem_ld][mshr_rc] = 0
gpgpu_stall_shd_mem[l_mem_ld][icnt_rc] = 0
gpgpu_stall_shd_mem[l_mem_ld][wb_icnt_rc] = 0
gpgpu_stall_shd_mem[l_mem_ld][wb_rsrv_fail] = 0
gpgpu_stall_shd_mem[l_mem_st][mshr_rc] = 0
gpgpu_stall_shd_mem[l_mem_st][icnt_rc] = 0
gpgpu_stall_shd_mem[l_mem_ld][wb_icnt_rc] = 0
gpgpu_stall_shd_mem[l_mem_ld][wb_rsrv_fail] = 0
gpu_reg_bank_conflict_stalls = 0
Warp Occupancy Distribution:
Stall:535157	W0_Idle:45037956	W0_Scoreboard:49102325	W1:0	W2:0	W3:0	W4:0	W5:8500	W6:0	W7:0	W8:28160	W9:0	W10:25600	W11:0	W12:12958	W13:8500	W14:714000	W15:0	W16:0	W17:0	W18:0	W19:0	W20:0	W21:0	W22:0	W23:0	W24:3517792	W25:0	W26:25600	W27:0	W28:3287550	W29:0	W30:0	W31:0	W32:7537784
traffic_breakdown_coretomem[CONST_ACC_R] = 448 {8:56,}
traffic_breakdown_coretomem[GLOBAL_ACC_R] = 2771648 {8:346456,}
traffic_breakdown_coretomem[GLOBAL_ACC_W] = 7856128 {40:44032,72:44032,136:21504,}
traffic_breakdown_coretomem[INST_ACC_R] = 2912 {8:364,}
traffic_breakdown_memtocore[CONST_ACC_R] = 4032 {72:56,}
traffic_breakdown_memtocore[GLOBAL_ACC_R] = 28785856 {40:114576,72:114576,136:117304,}
traffic_breakdown_memtocore[GLOBAL_ACC_W] = 876544 {8:109568,}
traffic_breakdown_memtocore[INST_ACC_R] = 49504 {136:364,}
maxmrqlatency = 561 
maxdqlatency = 0 
maxmflatency = 243881 
averagemflatency = 5321 
max_icnt2mem_latency = 243557 
max_icnt2sh_latency = 2140165 
mrq_lat_table:110834 	5994 	6198 	12141 	12828 	11954 	9736 	9619 	9073 	21 	0 	0 	0 	0 	0 	0 	0 	0 	0 	0 	0 	0 	0 	0 	0 	0 	0 	0 	0 	0 	0 	0 	
dq_lat_table:0 	0 	0 	0 	0 	0 	0 	0 	0 	0 	0 	0 	0 	0 	0 	0 	0 	0 	0 	0 	0 	0 	0 	0 	0 	0 	0 	0 	0 	0 	0 	0 	
mf_lat_table:0 	0 	0 	0 	0 	0 	0 	280450 	132064 	1886 	234 	2284 	1525 	3645 	7765 	18466 	3377 	4384 	0 	0 	0 	0 	0 	0 	0 	0 	0 	0 	0 	0 	0 	0 	
icnt2mem_lat_table:0 	0 	233143 	47574 	4361 	1009 	121363 	7120 	194 	1 	422 	2095 	1529 	3754 	8053 	18065 	3377 	4384 	0 	0 	0 	0 	0 	0 	
icnt2sh_lat_table:0 	0 	104621 	146866 	86450 	8488 	87 	0 	0 	0 	0 	0 	0 	0 	0 	0 	0 	0 	12840 	14659 	65058 	17011 	0 	0 	
mf_lat_pw_table:0 	0 	0 	0 	0 	0 	0 	384 	65 	3 	3 	13 	6 	12 	20 	30 	7 	2 	0 	0 	0 	0 	0 	0 	0 	0 	0 	0 	0 	0 	0 	0 	
maximum concurrent accesses to same row:
dram[0]:        69        70        69        70        66        67        69        70        69        70        69        70        68        66        69        70 
dram[1]:        69        70        69        70        66        63        69        70        69        70        69        70        68        65        69        70 
dram[2]:        69        70        69        70        65        65        69        70        69        70        69        70        66        66        69        70 
dram[3]:        69        70        69        70        67        63        69        70        69        70        69        70        64        66        69        70 
dram[4]:        69        70        69        70        65        66        69        70        69        70        69        70        66        65        69        70 
dram[5]:        69        70        69        70        63        66        69        70        69        70        69        70        67        69        69        70 
dram[6]:        69        70        69        70        68        64        69        70        69        70        69        70        69        66        69        70 
dram[7]:        69        70        69        70        64        65        69        70        69        70        69        70        66        66        69        70 
dram[8]:        69        70        69        70        66        64        69        70        69        70        69        70        65        66        69        70 
dram[9]:        69        70        69        70        67        63        69        70        69        70        69        70        64        66        69        70 
dram[10]:        69        70        69        70        64        67        69        70        69        70        69        70        67        66        69        70 
maximum service time to same row:
dram[0]:    342599    342681    497605    497832    256635    256501    504839    504852    377430    377334    376792    248610    338301    338301    337028    337105 
dram[1]:    342708    343036    497790    497794    496035    495882    504915    504926    377548    377494    248539    248913    338286    338286    337030    336879 
dram[2]:    342686    343049    497602    497572    495195    495202    504816    504839    377556    377419    248618    248343    338295    338292    336456    336103 
dram[3]:    342732    342715    497578    497492    343174    256693    504859    504865    377310    377428    248263    248208    338173    338207    336998    337017 
dram[4]:    342975    342939    497447    497787    256542    256699    504829    504612    377542    377553    248148    248217    338238    338222    337028    337108 
dram[5]:    342600    342680    497688    497696    256636    256483    504683    504964    377452    377398    248157    251804    338299    338302    337031    337096 
dram[6]:    342711    343034    497605    497609    496033    495776    504842    504824    377430    377400    376319    245760    338288    338287    337028    336883 
dram[7]:    341203    343052    497564    497463    495823    495872    504747    504925    377446    377268    245675    245665    338293    338294    336508    336082 
dram[8]:    342940    342758    497423    497359    256532    256576    504901    504839    377329    377370    245566    245576    338170    338193    336994    337070 
dram[9]:    342951    343040    497446    497791    256425    256563    504840    504557    377284    377301    245579    245743    338118    338217    337027    337107 
dram[10]:    347982    347601    497688    497693    256823    256448    504667    504965    377262    377270    245712    249367    338247    338232    337041    337102 
average row accesses per activate:
dram[0]: 13.126582 12.518072 10.267326 10.274509  9.933333 10.465346 12.120879 10.861386  9.899082 10.323810 10.533980  9.605263 11.500000 10.752475 12.344828 11.197917 
dram[1]: 13.760000 13.215190 10.404040 11.533334 11.423913 11.510870 12.098901 10.461538 10.150944 10.442307 10.557693 10.519231 11.612904 11.900000 14.276316 12.436782 
dram[2]: 14.577465 14.661972 10.718750 11.622222 11.600000 11.041667 12.292135 12.952941  9.907408 10.470589 12.870588 12.689655 13.120481 12.333333 13.500000 12.397727 
dram[3]: 16.349207 17.081966 11.085107 12.285714 12.698795 11.766666 13.506173 13.580247 10.403846 11.922222 12.375000 12.697675 12.894117 13.207317 12.500000 11.844444 
dram[4]: 13.880000 13.684211 10.555555 10.762887 11.797752 12.465117 13.072289 12.597701 10.352381 10.417476 11.563829 11.934783 13.469136 12.639535 13.358025 11.655914 
dram[5]: 12.357142 12.011628  9.775701 10.176471  9.414414 10.320389 12.258427 11.070707  9.720720  9.382608  9.723214 10.715686 12.670588 10.423077 10.693069 11.336843 
dram[6]: 13.282051 11.738636 11.417583 11.555555 11.255320  9.600000 12.054945 11.060606 10.065420 10.939394 11.416667 10.841584 11.645162 11.542553 13.000000 11.824176 
dram[7]: 14.591549 14.900000 11.896552 12.731708 10.460000 11.031250 13.555555 13.216867 10.690000 10.840000 12.882353 12.449438 11.879121 12.033708 13.195122 13.231708 
dram[8]: 14.563380 13.636364 10.530612 12.345238 11.637362 11.093750 13.835443 13.886076 10.160378 10.490196 13.132530 13.580247 12.088889 13.146341 13.109756 11.824176 
dram[9]: 13.428572 15.043478 10.097087  9.933333 11.052631 11.125000 13.873418 13.911392 10.715686 10.969388 12.662790 12.443182 11.771739 11.826087 12.402299 11.134021 
dram[10]: 12.369047 12.875000  9.700934 10.490000 10.019048 10.633663 13.822784 11.978022 10.333333  9.486726 11.040404 11.153061 12.616279 11.977777 11.368421 11.051021 
average row locality = 188398/16108 = 11.695928
number of total memory accesses made:
dram[0]:         0         0         0         0         0         0         0         0         0         0         0         0         0         0         0         0 
dram[1]:         0         0         0         0         0         0         0         0         0         0         0         0         0         0         0         0 
dram[2]:         0         0         0         0         0         0         0         0         0         0         0         0         0         0         0         0 
dram[3]:         0         0         0         0         0         0         0         0         0         0         0         0         0         0         0         0 
dram[4]:         0         0         0         0         0         0         0         0         0         0         0         0         0         0         0         0 
dram[5]:         0         0         0         0         0         0         0         0         0         0         0         0         0         0         0         0 
dram[6]:         0         0         0         0         0         0         0         0         0         0         0         0         0         0         0         0 
dram[7]:         0         0         0         0         0         0         0         0         0         0         0         0         0         0         0         0 
dram[8]:         0         0         0         0         0         0         0         0         0         0         0         0         0         0         0         0 
dram[9]:         0         0         0         0         0         0         0         0         0         0         0         0         0         0         0         0 
dram[10]:         0         0         0         0         0         0         0         0         0         0         0         0         0         0         0         0 
total accesses: 0
min_bank_accesses = 0!
min_chip_accesses = 0!
number of total read accesses:
dram[0]:       561       560       560       560       560       560       560       560       560       560       548       548       560       560       560       560 
dram[1]:       560       560       560       560       560       560       560       560       560       560       549       549       560       560       560       560 
dram[2]:       560       560       560       560       560       560       560       560       560       560       549       549       560       560       560       560 
dram[3]:       560       560       560       560       560       560       560       560       560       560       549       549       560       560       560       560 
dram[4]:       560       560       560       560       560       560       560       560       560       560       549       549       560       560       561       561 
dram[5]:       560       560       560       560       560       560       560       560       560       560       548       548       560       560       561       561 
dram[6]:       560       560       560       560       560       560       560       560       560       560       548       548       560       560       561       561 
dram[7]:       560       560       560       560       560       560       560       560       560       560       548       548       560       560       561       561 
dram[8]:       560       560       560       560       560       560       560       560       560       560       548       548       560       560       561       561 
dram[9]:       560       560       560       560       560       560       560       560       560       560       548       548       560       560       561       561 
dram[10]:       560       560       560       560       560       560       560       560       560       560       548       548       560       560       561       560 
total reads: 98318
bank skew: 561/548 = 1.02
chip skew: 8940/8937 = 1.00
number of total write accesses:
dram[0]:       476       479       477       488       483       497       543       537       519       524       537       547       521       526       514       515 
dram[1]:       472       484       470       478       491       499       541       528       516       526       549       545       520       511       525       522 
dram[2]:       475       481       469       486       484       500       534       541       510       508       545       555       529       513       520       531 
dram[3]:       470       482       482       472       494       499       534       540       522       513       540       543       536       523       515       506 
dram[4]:       481       480       485       484       490       512       525       536       527       513       538       549       531       527       521       523 
dram[5]:       478       473       486       478       485       503       531       536       519       519       541       545       517       524       519       516 
dram[6]:       476       473       479       480       498       496       537       535       517       523       548       547       523       525       518       515 
dram[7]:       476       483       475       484       486       499       538       537       509       524       547       560       521       511       521       524 
dram[8]:       474       490       472       477       499       505       533       537       517       510       542       552       528       518       514       515 
dram[9]:       474       478       480       483       490       508       536       539       533       515       541       547       523       528       518       519 
dram[10]:       479       470       478       489       492       514       532       530       525       512       545       545       525       518       519       523 
total reads: 90080
bank skew: 560/469 = 1.19
chip skew: 8222/8170 = 1.01
average mf latency per bank:
dram[0]:      11753     11666     15761     15959     15474     15237     12159     12516      6552      6378      9460      9372     17380     17426     13256     13025
dram[1]:      12488     12508     15915     16128     15483     15341     12457     12749      6625      6454      9505      9523     17520     17993     13277     13055
dram[2]:      12270     12365     16246     16057     15315     15433     12652     12661      6460      6123      9596      9455     17775     18204     13335     12960
dram[3]:      12692     12170     15907     16205     15272     15152     12429     12306      6469      6298      9602      9565     17531     18025     13476     13127
dram[4]:      12433     12235     14831     14772     16385     16364     12242     12062      6448      6338      9306      8871     17682     17766     13049     12724
dram[5]:      12745     13127     14693     14877     16572     16395     11847     12002      6711      6595      8691      8678     17746     17667     12194     11953
dram[6]:      12977     12679     15251     15690     16339     16070     12080     12344      6835      6617     10200     10627     17584     18025     12586     12428
dram[7]:      12511     12767     15765     15687     16211     16402     12907     13266      6630      6185     10678     10570     18329     18756     12650     12402
dram[8]:      12706     12328     15888     16032     15765     15780     13037     12808      6234      6008     10729     10585     18298     18697     12806     12495
dram[9]:      12699     12072     15380     15508     15670     15150     12077     11882      6300      6176     10786     10727     18319     18368     13237     13019
dram[10]:      11604     11854     14935     14681     15605     15625     11945     12125      6354      6290     10799     10729     17969     17783     12938     12532
maximum mf latency per bank:
dram[0]:     181762    181733    155666    155571    155296    155280    154533    154543    123046    122891    182729    182735    182405    182459    243814    243834
dram[1]:     181736    181664    155765    155552    155431    155425    154463    154330    122986    123019    182739    182739    182568    182702    243800    243829
dram[2]:     181853    181675    155787    155621    155432    155350    154260    154300    123015    122995    182729    182739    182618    182759    243808    243831
dram[3]:     181643    181478    155544    155624    155512    155452    154350    154351    123069    123072    182746    182741    182525    182615    243807    243881
dram[4]:     181638    181610    155593    155546    155496    155426    154115    154238    123051    123004    182735    182740    182460    182527    243809    182192
dram[5]:     181789    181870    155575    155533    155348    155414    154233    154150    123015    122923    182732    182731    182418    182476    182263    182292
dram[6]:     181745    181671    155834    155531    155284    155168    154140    154197    123043    123003    182751    182777    182557    182611    182468    182454
dram[7]:     181856    181661    155806    155629    155403    155382    154745    155003    122982    123015    182740    182752    182541    182676    182343    182157
dram[8]:     181698    181698    155584    155719    155460    155374    154774    154784    123011    123071    182761    182761    182526    182519    182274    182240
dram[9]:     181618    181702    155667    155603    155480    155441    154584    154546    123050    122978    182744    182741    182425    182503    243764    243774
dram[10]:     155006    154987    155561    155573    155446    155384    154587    154591    123024    122964    182729    182739    182447    182512    243797    243810
Memory Partition 0: 
Cache L2_bank_000:
MSHR contents

Cache L2_bank_001:
MSHR contents

In Dram Latency Queue (total = 0): 
DRAM[0]: 16 bks, busW=4 BL=8 CL=12, tRRD=2 tCCD=6, tRCD=12 tRAS=28 tRP=12 tRC=40
n_cmd=3561473 n_nop=3503425 n_act=1573 n_pre=1557 n_req=17120 n_rd=35748 n_write=19170 bw_util=0.03084
n_activity=192535 dram_eff=0.5705
bk0: 2244a 3541370i bk1: 2240a 3539768i bk2: 2240a 3540617i bk3: 2240a 3539296i bk4: 2240a 3540648i bk5: 2240a 3538426i bk6: 2240a 3538925i bk7: 2240a 3538290i bk8: 2240a 3539448i bk9: 2240a 3537584i bk10: 2192a 3539259i bk11: 2192a 3537941i bk12: 2240a 3539941i bk13: 2240a 3538342i bk14: 2240a 3540612i bk15: 2240a 3538977i 
dram_util_bins: 0 0 0 0 0 0 0 0 0 0
dram_eff_bins: 0 0 0 0 0 0 0 0 0 0
mrqq: max=64 avg=0.322813
Memory Partition 1: 
Cache L2_bank_002:
MSHR contents

Cache L2_bank_003:
MSHR contents

In Dram Latency Queue (total = 0): 
DRAM[1]: 16 bks, busW=4 BL=8 CL=12, tRRD=2 tCCD=6, tRCD=12 tRAS=28 tRP=12 tRC=40
n_cmd=3561473 n_nop=3503658 n_act=1486 n_pre=1470 n_req=17115 n_rd=35752 n_write=19107 bw_util=0.03081
n_activity=191741 dram_eff=0.5722
bk0: 2240a 3541957i bk1: 2240a 3540196i bk2: 2240a 3541172i bk3: 2240a 3540038i bk4: 2240a 3540297i bk5: 2240a 3539635i bk6: 2240a 3539952i bk7: 2240a 3538977i bk8: 2240a 3539443i bk9: 2240a 3538463i bk10: 2196a 3539457i bk11: 2196a 3538582i bk12: 2240a 3539889i bk13: 2240a 3538594i bk14: 2240a 3540397i bk15: 2240a 3538944i 
dram_util_bins: 0 0 0 0 0 0 0 0 0 0
dram_eff_bins: 0 0 0 0 0 0 0 0 0 0
mrqq: max=64 avg=0.317541
Memory Partition 2: 
Cache L2_bank_004:
MSHR contents

Cache L2_bank_005:
MSHR contents

In Dram Latency Queue (total = 0): 
DRAM[2]: 16 bks, busW=4 BL=8 CL=12, tRRD=2 tCCD=6, tRCD=12 tRAS=28 tRP=12 tRC=40
n_cmd=3561473 n_nop=3503758 n_act=1408 n_pre=1392 n_req=17119 n_rd=35752 n_write=19163 bw_util=0.03084
n_activity=191234 dram_eff=0.5743
bk0: 2240a 3542158i bk1: 2240a 3539778i bk2: 2240a 3540943i bk3: 2240a 3540302i bk4: 2240a 3540481i bk5: 2240a 3539545i bk6: 2240a 3540027i bk7: 2240a 3539390i bk8: 2240a 3540237i bk9: 2240a 3539857i bk10: 2196a 3539911i bk11: 2196a 3538646i bk12: 2240a 3539577i bk13: 2240a 3538162i bk14: 2240a 3539860i bk15: 2240a 3539362i 
dram_util_bins: 0 0 0 0 0 0 0 0 0 0
dram_eff_bins: 0 0 0 0 0 0 0 0 0 0
mrqq: max=64 avg=0.31519
Memory Partition 3: 
Cache L2_bank_006:
MSHR contents

Cache L2_bank_007:
MSHR contents

In Dram Latency Queue (total = 0): 
DRAM[3]: 16 bks, busW=4 BL=8 CL=12, tRRD=2 tCCD=6, tRCD=12 tRAS=28 tRP=12 tRC=40
n_cmd=3561473 n_nop=3503879 n_act=1348 n_pre=1332 n_req=17109 n_rd=35752 n_write=19162 bw_util=0.03084
n_activity=191942 dram_eff=0.5722
bk0: 2240a 3542264i bk1: 2240a 3541066i bk2: 2240a 3541089i bk3: 2240a 3540996i bk4: 2240a 3540719i bk5: 2240a 3540254i bk6: 2240a 3539956i bk7: 2240a 3539364i bk8: 2240a 3539599i bk9: 2240a 3539107i bk10: 2196a 3539904i bk11: 2196a 3539277i bk12: 2240a 3539426i bk13: 2240a 3538823i bk14: 2240a 3541101i bk15: 2240a 3539410i 
dram_util_bins: 0 0 0 0 0 0 0 0 0 0
dram_eff_bins: 0 0 0 0 0 0 0 0 0 0
mrqq: max=64 avg=0.316274
Memory Partition 4: 
Cache L2_bank_008:
MSHR contents

Cache L2_bank_009:
MSHR contents

In Dram Latency Queue (total = 0): 
DRAM[4]: 16 bks, busW=4 BL=8 CL=12, tRRD=2 tCCD=6, tRCD=12 tRAS=28 tRP=12 tRC=40
n_cmd=3561473 n_nop=3503625 n_act=1427 n_pre=1411 n_req=17162 n_rd=35760 n_write=19250 bw_util=0.03089
n_activity=192117 dram_eff=0.5727
bk0: 2240a 3540851i bk1: 2240a 3539433i bk2: 2240a 3540883i bk3: 2240a 3540247i bk4: 2240a 3540701i bk5: 2240a 3538909i bk6: 2240a 3540717i bk7: 2240a 3538679i bk8: 2240a 3539561i bk9: 2240a 3539068i bk10: 2196a 3539466i bk11: 2196a 3538449i bk12: 2240a 3539989i bk13: 2240a 3539128i bk14: 2244a 3540969i bk15: 2244a 3539349i 
dram_util_bins: 0 0 0 0 0 0 0 0 0 0
dram_eff_bins: 0 0 0 0 0 0 0 0 0 0
mrqq: max=64 avg=0.320789
Memory Partition 5: 
Cache L2_bank_010:
MSHR contents

Cache L2_bank_011:
MSHR contents

In Dram Latency Queue (total = 0): 
DRAM[5]: 16 bks, busW=4 BL=8 CL=12, tRRD=2 tCCD=6, tRCD=12 tRAS=28 tRP=12 tRC=40
n_cmd=3561473 n_nop=3503350 n_act=1606 n_pre=1590 n_req=17108 n_rd=35752 n_write=19175 bw_util=0.03085
n_activity=193340 dram_eff=0.5682
bk0: 2240a 3540532i bk1: 2240a 3540158i bk2: 2240a 3540851i bk3: 2240a 3540008i bk4: 2240a 3539445i bk5: 2240a 3538343i bk6: 2240a 3540169i bk7: 2240a 3539295i bk8: 2240a 3539489i bk9: 2240a 3537786i bk10: 2192a 3539901i bk11: 2192a 3539578i bk12: 2240a 3540275i bk13: 2240a 3537784i bk14: 2244a 3540397i bk15: 2244a 3539543i 
dram_util_bins: 0 0 0 0 0 0 0 0 0 0
dram_eff_bins: 0 0 0 0 0 0 0 0 0 0
mrqq: max=64 avg=0.314501
Memory Partition 6: 
Cache L2_bank_012:
MSHR contents

Cache L2_bank_013:
MSHR contents

In Dram Latency Queue (total = 0): 
DRAM[6]: 16 bks, busW=4 BL=8 CL=12, tRRD=2 tCCD=6, tRCD=12 tRAS=28 tRP=12 tRC=40
n_cmd=3561473 n_nop=3503598 n_act=1505 n_pre=1489 n_req=17128 n_rd=35752 n_write=19129 bw_util=0.03082
n_activity=191469 dram_eff=0.5733
bk0: 2240a 3541422i bk1: 2240a 3540523i bk2: 2240a 3541293i bk3: 2240a 3540294i bk4: 2240a 3539741i bk5: 2240a 3538081i bk6: 2240a 3539746i bk7: 2240a 3538478i bk8: 2240a 3539693i bk9: 2240a 3538246i bk10: 2192a 3539618i bk11: 2192a 3539646i bk12: 2240a 3539739i bk13: 2240a 3538616i bk14: 2244a 3540344i bk15: 2244a 3539044i 
dram_util_bins: 0 0 0 0 0 0 0 0 0 0
dram_eff_bins: 0 0 0 0 0 0 0 0 0 0
mrqq: max=64 avg=0.316636
Memory Partition 7: 
Cache L2_bank_014:
MSHR contents

Cache L2_bank_015:
MSHR contents

In Dram Latency Queue (total = 0): 
DRAM[7]: 16 bks, busW=4 BL=8 CL=12, tRRD=2 tCCD=6, tRCD=12 tRAS=28 tRP=12 tRC=40
n_cmd=3561473 n_nop=3503828 n_act=1388 n_pre=1372 n_req=17133 n_rd=35752 n_write=19133 bw_util=0.03082
n_activity=192003 dram_eff=0.5717
bk0: 2240a 3542280i bk1: 2240a 3540570i bk2: 2240a 3541451i bk3: 2240a 3540304i bk4: 2240a 3540178i bk5: 2240a 3539525i bk6: 2240a 3540048i bk7: 2240a 3539695i bk8: 2240a 3539700i bk9: 2240a 3538671i bk10: 2192a 3539671i bk11: 2192a 3539390i bk12: 2240a 3540014i bk13: 2240a 3538873i bk14: 2244a 3540539i bk15: 2244a 3539720i 
dram_util_bins: 0 0 0 0 0 0 0 0 0 0
dram_eff_bins: 0 0 0 0 0 0 0 0 0 0
mrqq: max=64 avg=0.31862
Memory Partition 8: 
Cache L2_bank_016:
MSHR contents

Cache L2_bank_017:
MSHR contents

In Dram Latency Queue (total = 0): 
DRAM[8]: 16 bks, busW=4 BL=8 CL=12, tRRD=2 tCCD=6, tRCD=12 tRAS=28 tRP=12 tRC=40
n_cmd=3561473 n_nop=3503754 n_act=1392 n_pre=1376 n_req=17121 n_rd=35752 n_write=19199 bw_util=0.03086
n_activity=192369 dram_eff=0.5713
bk0: 2240a 3542343i bk1: 2240a 3540374i bk2: 2240a 3541007i bk3: 2240a 3540743i bk4: 2240a 3540322i bk5: 2240a 3538878i bk6: 2240a 3540122i bk7: 2240a 3539921i bk8: 2240a 3539007i bk9: 2240a 3538814i bk10: 2192a 3539877i bk11: 2192a 3539211i bk12: 2240a 3540014i bk13: 2240a 3539831i bk14: 2244a 3540498i bk15: 2244a 3539579i 
dram_util_bins: 0 0 0 0 0 0 0 0 0 0
dram_eff_bins: 0 0 0 0 0 0 0 0 0 0
mrqq: max=64 avg=0.314541
Memory Partition 9: 
Cache L2_bank_018:
MSHR contents

Cache L2_bank_019:
MSHR contents

In Dram Latency Queue (total = 0): 
DRAM[9]: 16 bks, busW=4 BL=8 CL=12, tRRD=2 tCCD=6, tRCD=12 tRAS=28 tRP=12 tRC=40
n_cmd=3561473 n_nop=3503618 n_act=1445 n_pre=1429 n_req=17150 n_rd=35752 n_write=19229 bw_util=0.03088
n_activity=192881 dram_eff=0.5701
bk0: 2240a 3541727i bk1: 2240a 3541543i bk2: 2240a 3541092i bk3: 2240a 3540627i bk4: 2240a 3540133i bk5: 2240a 3538459i bk6: 2240a 3539518i bk7: 2240a 3539747i bk8: 2240a 3540082i bk9: 2240a 3539046i bk10: 2192a 3540516i bk11: 2192a 3538555i bk12: 2240a 3539537i bk13: 2240a 3539084i bk14: 2244a 3540573i bk15: 2244a 3539379i 
dram_util_bins: 0 0 0 0 0 0 0 0 0 0
dram_eff_bins: 0 0 0 0 0 0 0 0 0 0
mrqq: max=64 avg=0.319543
Memory Partition 10: 
Cache L2_bank_020:
MSHR contents

Cache L2_bank_021:
MSHR contents

In Dram Latency Queue (total = 0): 
DRAM[10]: 16 bks, busW=4 BL=8 CL=12, tRRD=2 tCCD=6, tRCD=12 tRAS=28 tRP=12 tRC=40
n_cmd=3561473 n_nop=3503457 n_act=1531 n_pre=1515 n_req=17133 n_rd=35748 n_write=19222 bw_util=0.03087
n_activity=192750 dram_eff=0.5704
bk0: 2240a 3540695i bk1: 2240a 3539600i bk2: 2240a 3540745i bk3: 2240a 3539562i bk4: 2240a 3539437i bk5: 2240a 3537650i bk6: 2240a 3540044i bk7: 2240a 3538623i bk8: 2240a 3539634i bk9: 2240a 3537889i bk10: 2192a 3539288i bk11: 2192a 3539172i bk12: 2240a 3540036i bk13: 2240a 3538953i bk14: 2244a 3539822i bk15: 2240a 3539195i 
dram_util_bins: 0 0 0 0 0 0 0 0 0 0
dram_eff_bins: 0 0 0 0 0 0 0 0 0 0
mrqq: max=64 avg=0.319776

========= L2 cache stats =========
L2_cache_bank[0]: Access = 20620, Miss = 4469, Miss_rate = 0.217, Pending_hits = 6861, Reservation_fails = 7
L2_cache_bank[1]: Access = 20905, Miss = 4468, Miss_rate = 0.214, Pending_hits = 7027, Reservation_fails = 8
L2_cache_bank[2]: Access = 20570, Miss = 4469, Miss_rate = 0.217, Pending_hits = 6865, Reservation_fails = 3
L2_cache_bank[3]: Access = 20910, Miss = 4469, Miss_rate = 0.214, Pending_hits = 6992, Reservation_fails = 3
L2_cache_bank[4]: Access = 20562, Miss = 4469, Miss_rate = 0.217, Pending_hits = 6787, Reservation_fails = 6
L2_cache_bank[5]: Access = 20901, Miss = 4469, Miss_rate = 0.214, Pending_hits = 7005, Reservation_fails = 6
L2_cache_bank[6]: Access = 20556, Miss = 4469, Miss_rate = 0.217, Pending_hits = 6907, Reservation_fails = 7
L2_cache_bank[7]: Access = 20897, Miss = 4469, Miss_rate = 0.214, Pending_hits = 6954, Reservation_fails = 7
L2_cache_bank[8]: Access = 20582, Miss = 4470, Miss_rate = 0.217, Pending_hits = 6872, Reservation_fails = 5
L2_cache_bank[9]: Access = 20926, Miss = 4470, Miss_rate = 0.214, Pending_hits = 7013, Reservation_fails = 2
L2_cache_bank[10]: Access = 20583, Miss = 4469, Miss_rate = 0.217, Pending_hits = 6853, Reservation_fails = 7
L2_cache_bank[11]: Access = 20925, Miss = 4469, Miss_rate = 0.214, Pending_hits = 7029, Reservation_fails = 8
L2_cache_bank[12]: Access = 20590, Miss = 4469, Miss_rate = 0.217, Pending_hits = 6902, Reservation_fails = 8
L2_cache_bank[13]: Access = 20929, Miss = 4469, Miss_rate = 0.214, Pending_hits = 7052, Reservation_fails = 9
L2_cache_bank[14]: Access = 20586, Miss = 4469, Miss_rate = 0.217, Pending_hits = 6813, Reservation_fails = 8
L2_cache_bank[15]: Access = 20925, Miss = 4469, Miss_rate = 0.214, Pending_hits = 7005, Reservation_fails = 9
L2_cache_bank[16]: Access = 20580, Miss = 4469, Miss_rate = 0.217, Pending_hits = 6824, Reservation_fails = 5
L2_cache_bank[17]: Access = 20920, Miss = 4469, Miss_rate = 0.214, Pending_hits = 7076, Reservation_fails = 11
L2_cache_bank[18]: Access = 20578, Miss = 4469, Miss_rate = 0.217, Pending_hits = 6921, Reservation_fails = 9
L2_cache_bank[19]: Access = 20921, Miss = 4469, Miss_rate = 0.214, Pending_hits = 6951, Reservation_fails = 7
L2_cache_bank[20]: Access = 20581, Miss = 4469, Miss_rate = 0.217, Pending_hits = 6886, Reservation_fails = 4
L2_cache_bank[21]: Access = 20897, Miss = 4468, Miss_rate = 0.214, Pending_hits = 6931, Reservation_fails = 6
L2_total_cache_accesses = 456444
L2_total_cache_misses = 98318
L2_total_cache_miss_rate = 0.2154
L2_total_cache_pending_hits = 152526
L2_total_cache_reservation_fails = 145
L2_total_cache_breakdown:
	L2_cache_stats_breakdown[GLOBAL_ACC_R][HIT] = 172316
	L2_cache_stats_breakdown[GLOBAL_ACC_R][HIT_RESERVED] = 108604
	L2_cache_stats_breakdown[GLOBAL_ACC_R][MISS] = 65536
	L2_cache_stats_breakdown[GLOBAL_ACC_R][RESERVATION_FAIL] = 3
	L2_cache_stats_breakdown[LOCAL_ACC_R][HIT] = 0
	L2_cache_stats_breakdown[LOCAL_ACC_R][HIT_RESERVED] = 0
	L2_cache_stats_breakdown[LOCAL_ACC_R][MISS] = 0
	L2_cache_stats_breakdown[LOCAL_ACC_R][RESERVATION_FAIL] = 0
	L2_cache_stats_breakdown[CONST_ACC_R][HIT] = 28
	L2_cache_stats_breakdown[CONST_ACC_R][HIT_RESERVED] = 27
	L2_cache_stats_breakdown[CONST_ACC_R][MISS] = 1
	L2_cache_stats_breakdown[CONST_ACC_R][RESERVATION_FAIL] = 0
	L2_cache_stats_breakdown[TEXTURE_ACC_R][HIT] = 0
	L2_cache_stats_breakdown[TEXTURE_ACC_R][HIT_RESERVED] = 0
	L2_cache_stats_breakdown[TEXTURE_ACC_R][MISS] = 0
	L2_cache_stats_breakdown[TEXTURE_ACC_R][RESERVATION_FAIL] = 0
	L2_cache_stats_breakdown[GLOBAL_ACC_W][HIT] = 33246
	L2_cache_stats_breakdown[GLOBAL_ACC_W][HIT_RESERVED] = 43554
	L2_cache_stats_breakdown[GLOBAL_ACC_W][MISS] = 32768
	L2_cache_stats_breakdown[GLOBAL_ACC_W][RESERVATION_FAIL] = 142
	L2_cache_stats_breakdown[LOCAL_ACC_W][HIT] = 0
	L2_cache_stats_breakdown[LOCAL_ACC_W][HIT_RESERVED] = 0
	L2_cache_stats_breakdown[LOCAL_ACC_W][MISS] = 0
	L2_cache_stats_breakdown[LOCAL_ACC_W][RESERVATION_FAIL] = 0
	L2_cache_stats_breakdown[L1_WRBK_ACC][HIT] = 0
	L2_cache_stats_breakdown[L1_WRBK_ACC][HIT_RESERVED] = 0
	L2_cache_stats_breakdown[L1_WRBK_ACC][MISS] = 0
	L2_cache_stats_breakdown[L1_WRBK_ACC][RESERVATION_FAIL] = 0
	L2_cache_stats_breakdown[L2_WRBK_ACC][HIT] = 0
	L2_cache_stats_breakdown[L2_WRBK_ACC][HIT_RESERVED] = 0
	L2_cache_stats_breakdown[L2_WRBK_ACC][MISS] = 0
	L2_cache_stats_breakdown[L2_WRBK_ACC][RESERVATION_FAIL] = 0
	L2_cache_stats_breakdown[INST_ACC_R][HIT] = 10
	L2_cache_stats_breakdown[INST_ACC_R][HIT_RESERVED] = 341
	L2_cache_stats_breakdown[INST_ACC_R][MISS] = 13
	L2_cache_stats_breakdown[INST_ACC_R][RESERVATION_FAIL] = 0
	L2_cache_stats_breakdown[L1_WR_ALLOC_R][HIT] = 0
	L2_cache_stats_breakdown[L1_WR_ALLOC_R][HIT_RESERVED] = 0
	L2_cache_stats_breakdown[L1_WR_ALLOC_R][MISS] = 0
	L2_cache_stats_breakdown[L1_WR_ALLOC_R][RESERVATION_FAIL] = 0
	L2_cache_stats_breakdown[L2_WR_ALLOC_R][HIT] = 0
	L2_cache_stats_breakdown[L2_WR_ALLOC_R][HIT_RESERVED] = 0
	L2_cache_stats_breakdown[L2_WR_ALLOC_R][MISS] = 0
	L2_cache_stats_breakdown[L2_WR_ALLOC_R][RESERVATION_FAIL] = 0
	L2_cache_stats_breakdown[GLOBAL_ACC_R][TOTAL_ACCESS] = 346456
	L2_cache_stats_breakdown[CONST_ACC_R][TOTAL_ACCESS] = 56
	L2_cache_stats_breakdown[GLOBAL_ACC_W][TOTAL_ACCESS] = 109568
	L2_cache_stats_breakdown[INST_ACC_R][TOTAL_ACCESS] = 364
L2_cache_data_port_util = 0.012
L2_cache_fill_port_util = 0.009

icnt_total_pkts_mem_to_simt=1270956
icnt_total_pkts_simt_to_mem=674556
LD_mem_lat_dist  0 0 0 0 0 0 0 0 0 0 0 0 0 0 0 0 0 0 0 0 0 0 0 0 0 0 0
ST_mem_lat_dist  0 0 0 0 0 0 0 0 0 0 0 0 0 0 0 0 0 0 0 0 0 0 0 0 0 0 0
----------------------------Interconnect-DETAILS--------------------------------
Class 0:
Packet latency average = 16.5295
	minimum = 6
	maximum = 752
Network latency average = 13.0556
	minimum = 6
	maximum = 747
Slowest packet = 534860
Flit latency average = 13.0564
	minimum = 6
	maximum = 743
Slowest flit = 1143041
Fragmentation average = 0.00152045
	minimum = 0
	maximum = 658
Injected packet rate average = 0.00475955
	minimum = 0.00408208 (at node 26)
	maximum = 0.0054559 (at node 41)
Accepted packet rate average = 0.00475955
	minimum = 0.00408208 (at node 26)
	maximum = 0.0054559 (at node 41)
Injected flit rate average = 0.0101434
	minimum = 0.00612065 (at node 26)
	maximum = 0.0151824 (at node 37)
Accepted flit rate average= 0.0101434
	minimum = 0.00795432 (at node 34)
	maximum = 0.012179 (at node 17)
Injected packet length average = 2.13116
Accepted packet length average = 2.13116
Total in-flight flits = 0 (0 measured)
====== Overall Traffic Statistics ======
====== Traffic class 0 ======
Packet latency average = 16.5295 (1 samples)
	minimum = 6 (1 samples)
	maximum = 752 (1 samples)
Network latency average = 13.0556 (1 samples)
	minimum = 6 (1 samples)
	maximum = 747 (1 samples)
Flit latency average = 13.0564 (1 samples)
	minimum = 6 (1 samples)
	maximum = 743 (1 samples)
Fragmentation average = 0.00152045 (1 samples)
	minimum = 0 (1 samples)
	maximum = 658 (1 samples)
Injected packet rate average = 0.00475955 (1 samples)
	minimum = 0.00408208 (1 samples)
	maximum = 0.0054559 (1 samples)
Accepted packet rate average = 0.00475955 (1 samples)
	minimum = 0.00408208 (1 samples)
	maximum = 0.0054559 (1 samples)
Injected flit rate average = 0.0101434 (1 samples)
	minimum = 0.00612065 (1 samples)
	maximum = 0.0151824 (1 samples)
Accepted flit rate average = 0.0101434 (1 samples)
	minimum = 0.00795432 (1 samples)
	maximum = 0.012179 (1 samples)
Injected packet size average = 2.13116 (1 samples)
Accepted packet size average = 2.13116 (1 samples)
Hops average = 1 (1 samples)
----------------------------END-of-Interconnect-DETAILS-------------------------


gpgpu_simulation_time = 0 days, 0 hrs, 49 min, 3 sec (2943 sec)
gpgpu_simulation_rate = 141171 (inst/sec)
gpgpu_simulation_rate = 727 (cycle/sec)

GPGPU-Sim PTX: cudaLaunch for 0x0x401ae2 (mode=performance simulation) on stream 0
GPGPU-Sim PTX: pushing kernel '_Z14calculate_tempiPfS_S_iiiiffffff' to stream 0, gridDim= (86,86,1) blockDim = (16,16,1) 
GPGPU-Sim uArch: Shader 3 bind to kernel 2 '_Z14calculate_tempiPfS_S_iiiiffffff'
GPGPU-Sim uArch: Shader 4 bind to kernel 2 '_Z14calculate_tempiPfS_S_iiiiffffff'
GPGPU-Sim uArch: Shader 5 bind to kernel 2 '_Z14calculate_tempiPfS_S_iiiiffffff'
GPGPU-Sim uArch: Shader 6 bind to kernel 2 '_Z14calculate_tempiPfS_S_iiiiffffff'
GPGPU-Sim uArch: Shader 7 bind to kernel 2 '_Z14calculate_tempiPfS_S_iiiiffffff'
GPGPU-Sim uArch: Shader 8 bind to kernel 2 '_Z14calculate_tempiPfS_S_iiiiffffff'
GPGPU-Sim uArch: Shader 9 bind to kernel 2 '_Z14calculate_tempiPfS_S_iiiiffffff'
GPGPU-Sim uArch: Shader 10 bind to kernel 2 '_Z14calculate_tempiPfS_S_iiiiffffff'
GPGPU-Sim uArch: Shader 11 bind to kernel 2 '_Z14calculate_tempiPfS_S_iiiiffffff'
GPGPU-Sim uArch: Shader 12 bind to kernel 2 '_Z14calculate_tempiPfS_S_iiiiffffff'
GPGPU-Sim uArch: Shader 13 bind to kernel 2 '_Z14calculate_tempiPfS_S_iiiiffffff'
GPGPU-Sim uArch: Shader 14 bind to kernel 2 '_Z14calculate_tempiPfS_S_iiiiffffff'
GPGPU-Sim uArch: Shader 15 bind to kernel 2 '_Z14calculate_tempiPfS_S_iiiiffffff'
GPGPU-Sim uArch: Shader 16 bind to kernel 2 '_Z14calculate_tempiPfS_S_iiiiffffff'
GPGPU-Sim uArch: Shader 17 bind to kernel 2 '_Z14calculate_tempiPfS_S_iiiiffffff'
GPGPU-Sim uArch: Shader 18 bind to kernel 2 '_Z14calculate_tempiPfS_S_iiiiffffff'
GPGPU-Sim uArch: Shader 19 bind to kernel 2 '_Z14calculate_tempiPfS_S_iiiiffffff'
GPGPU-Sim uArch: Shader 20 bind to kernel 2 '_Z14calculate_tempiPfS_S_iiiiffffff'
GPGPU-Sim uArch: Shader 21 bind to kernel 2 '_Z14calculate_tempiPfS_S_iiiiffffff'
GPGPU-Sim uArch: Shader 22 bind to kernel 2 '_Z14calculate_tempiPfS_S_iiiiffffff'
GPGPU-Sim uArch: Shader 23 bind to kernel 2 '_Z14calculate_tempiPfS_S_iiiiffffff'
GPGPU-Sim uArch: Shader 24 bind to kernel 2 '_Z14calculate_tempiPfS_S_iiiiffffff'
GPGPU-Sim uArch: Shader 25 bind to kernel 2 '_Z14calculate_tempiPfS_S_iiiiffffff'
GPGPU-Sim uArch: Shader 26 bind to kernel 2 '_Z14calculate_tempiPfS_S_iiiiffffff'
GPGPU-Sim uArch: Shader 27 bind to kernel 2 '_Z14calculate_tempiPfS_S_iiiiffffff'
GPGPU-Sim uArch: Shader 0 bind to kernel 2 '_Z14calculate_tempiPfS_S_iiiiffffff'
GPGPU-Sim uArch: Shader 1 bind to kernel 2 '_Z14calculate_tempiPfS_S_iiiiffffff'
GPGPU-Sim uArch: Shader 2 bind to kernel 2 '_Z14calculate_tempiPfS_S_iiiiffffff'
GPGPU-Sim uArch: Shader 3 bind to kernel 2 '_Z14calculate_tempiPfS_S_iiiiffffff'
GPGPU-Sim uArch: Shader 4 bind to kernel 2 '_Z14calculate_tempiPfS_S_iiiiffffff'
GPGPU-Sim uArch: Shader 5 bind to kernel 2 '_Z14calculate_tempiPfS_S_iiiiffffff'
GPGPU-Sim uArch: Shader 6 bind to kernel 2 '_Z14calculate_tempiPfS_S_iiiiffffff'
GPGPU-Sim uArch: Shader 17 bind to kernel 2 '_Z14calculate_tempiPfS_S_iiiiffffff'
GPGPU-Sim uArch: Shader 18 bind to kernel 2 '_Z14calculate_tempiPfS_S_iiiiffffff'
GPGPU-Sim uArch: Shader 19 bind to kernel 2 '_Z14calculate_tempiPfS_S_iiiiffffff'
GPGPU-Sim uArch: Shader 20 bind to kernel 2 '_Z14calculate_tempiPfS_S_iiiiffffff'
GPGPU-Sim uArch: Shader 21 bind to kernel 2 '_Z14calculate_tempiPfS_S_iiiiffffff'
GPGPU-Sim uArch: Shader 22 bind to kernel 2 '_Z14calculate_tempiPfS_S_iiiiffffff'
GPGPU-Sim uArch: Shader 23 bind to kernel 2 '_Z14calculate_tempiPfS_S_iiiiffffff'
GPGPU-Sim uArch: Shader 24 bind to kernel 2 '_Z14calculate_tempiPfS_S_iiiiffffff'
GPGPU-Sim uArch: Shader 25 bind to kernel 2 '_Z14calculate_tempiPfS_S_iiiiffffff'
GPGPU-Sim uArch: Shader 26 bind to kernel 2 '_Z14calculate_tempiPfS_S_iiiiffffff'
GPGPU-Sim uArch: Shader 27 bind to kernel 2 '_Z14calculate_tempiPfS_S_iiiiffffff'
GPGPU-Sim uArch: Shader 0 bind to kernel 2 '_Z14calculate_tempiPfS_S_iiiiffffff'
GPGPU-Sim uArch: Shader 1 bind to kernel 2 '_Z14calculate_tempiPfS_S_iiiiffffff'
GPGPU-Sim uArch: Shader 2 bind to kernel 2 '_Z14calculate_tempiPfS_S_iiiiffffff'
GPGPU-Sim uArch: Shader 3 bind to kernel 2 '_Z14calculate_tempiPfS_S_iiiiffffff'
GPGPU-Sim uArch: Shader 4 bind to kernel 2 '_Z14calculate_tempiPfS_S_iiiiffffff'
GPGPU-Sim uArch: Shader 5 bind to kernel 2 '_Z14calculate_tempiPfS_S_iiiiffffff'
GPGPU-Sim uArch: Shader 6 bind to kernel 2 '_Z14calculate_tempiPfS_S_iiiiffffff'
GPGPU-Sim uArch: Shader 7 bind to kernel 2 '_Z14calculate_tempiPfS_S_iiiiffffff'
GPGPU-Sim uArch: Shader 8 bind to kernel 2 '_Z14calculate_tempiPfS_S_iiiiffffff'
GPGPU-Sim uArch: Shader 9 bind to kernel 2 '_Z14calculate_tempiPfS_S_iiiiffffff'
GPGPU-Sim uArch: Shader 10 bind to kernel 2 '_Z14calculate_tempiPfS_S_iiiiffffff'
GPGPU-Sim uArch: Shader 11 bind to kernel 2 '_Z14calculate_tempiPfS_S_iiiiffffff'
GPGPU-Sim uArch: Shader 12 bind to kernel 2 '_Z14calculate_tempiPfS_S_iiiiffffff'
GPGPU-Sim uArch: Shader 13 bind to kernel 2 '_Z14calculate_tempiPfS_S_iiiiffffff'
[...]
F:  1791839----T:  1913399 	 St: c0100000 Sz: 1048576 	 Sm: 0 	 T: write_back(82.079674)
F:  1918874----T:  1921479 	 St: c0700000 Sz: 4096 	 Sm: 0 	 T: memcpy_h2d(1.758947)
F:  1918874----T:  1927576 	 St: c0800000 Sz: 65536 	 Sm: 0 	 T: write_back(5.875760)
F:  1927576----T:  1936278 	 St: c0810000 Sz: 65536 	 Sm: 0 	 T: write_back(5.875760)
F:  1936278----T:  1952441 	 St: c0820000 Sz: 131072 	 Sm: 0 	 T: write_back(10.913572)
F:  1952441----T:  2073530 	 St: c0701000 Sz: 1044480 	 Sm: 0 	 T: memcpy_h2d(81.761650)
F:  1952441----T:  1983634 	 St: c0840000 Sz: 262144 	 Sm: 0 	 T: write_back(21.062120)
F:  2362316----T:  3635376 	 	 	 Kl: 2 	 Sm: 0 	 T: kernel_launch(859.594849)
F:  2363057----T:  2366143 	 St: c0800000 Sz: 12288 	 Sm: 0 	 T: memcpy_h2d(2.083727)
F:  2363057----T:  2371759 	 St: c0880000 Sz: 65536 	 Sm: 0 	 T: write_back(5.875760)
F:  2371759----T:  2380461 	 St: c0890000 Sz: 65536 	 Sm: 0 	 T: write_back(5.875760)
F:  2380461----T:  2396624 	 St: c08a0000 Sz: 131072 	 Sm: 0 	 T: write_back(10.913572)
F:  2396624----T:  2456519 	 St: c0803000 Sz: 512000 	 Sm: 0 	 T: memcpy_h2d(40.442268)
F:  2396624----T:  2427817 	 St: c08c0000 Sz: 262144 	 Sm: 0 	 T: write_back(21.062120)
F:  2462048----T:  2464653 	 St: c0000000 Sz: 4096 	 Sm: 0 	 T: memcpy_h2d(1.758947)
F:  2462638----T:  2471340 	 St: c0200000 Sz: 65536 	 Sm: 0 	 T: write_back(5.875760)
F:  2464653----T:  2472893 	 St: c0001000 Sz: 61440 	 Sm: 0 	 T: memcpy_h2d(5.563808)
F:  2471340----T:  2480042 	 St: c0210000 Sz: 65536 	 Sm: 0 	 T: write_back(5.875760)
F:  2472893----T:  2475498 	 St: c0010000 Sz: 4096 	 Sm: 0 	 T: memcpy_h2d(1.758947)
F:  2475498----T:  2483738 	 St: c0011000 Sz: 61440 	 Sm: 0 	 T: memcpy_h2d(5.563808)
F:  2480043----T:  2496206 	 St: c0220000 Sz: 131072 	 Sm: 0 	 T: write_back(10.913572)
F:  2483738----T:  2486824 	 St: c0020000 Sz: 12288 	 Sm: 0 	 T: memcpy_h2d(2.083727)
F:  2486824----T:  2501582 	 St: c0023000 Sz: 118784 	 Sm: 0 	 T: memcpy_h2d(9.964889)
F:  2516091----T:  2519177 	 St: c0040000 Sz: 12288 	 Sm: 0 	 T: memcpy_h2d(2.083727)
F:  2516091----T:  2547284 	 St: c0240000 Sz: 262144 	 Sm: 0 	 T: write_back(21.062120)
F:  2519177----T:  2548960 	 St: c0043000 Sz: 249856 	 Sm: 0 	 T: memcpy_h2d(20.110062)
F:  2557777----T:  2560863 	 St: c0880000 Sz: 12288 	 Sm: 0 	 T: memcpy_h2d(2.083727)
F:  2557777----T:  2619084 	 St: c0280000 Sz: 524288 	 Sm: 0 	 T: write_back(41.395679)
F:  2560863----T:  2620758 	 St: c0883000 Sz: 512000 	 Sm: 0 	 T: memcpy_h2d(40.442268)
F:  2626263----T:  2628868 	 St: c0080000 Sz: 4096 	 Sm: 0 	 T: memcpy_h2d(1.758947)
F:  2626263----T:  2747823 	 St: c0300000 Sz: 1048576 	 Sm: 0 	 T: write_back(82.079674)
F:  2628868----T:  2689704 	 St: c0081000 Sz: 520192 	 Sm: 0 	 T: memcpy_h2d(41.077652)
F:  2778391----T:  2781477 	 St: c0100000 Sz: 12288 	 Sm: 0 	 T: memcpy_h2d(2.083727)
F:  2778391----T:  2787093 	 St: c0a00000 Sz: 65536 	 Sm: 0 	 T: write_back(5.875760)
F:  2787093----T:  2795795 	 St: c0a10000 Sz: 65536 	 Sm: 0 	 T: write_back(5.875760)
F:  2795795----T:  2811958 	 St: c0a20000 Sz: 131072 	 Sm: 0 	 T: write_back(10.913572)
F:  2811958----T:  2932106 	 St: c0103000 Sz: 1036288 	 Sm: 0 	 T: memcpy_h2d(81.126266)
F:  2811958----T:  2843151 	 St: c0a40000 Sz: 262144 	 Sm: 0 	 T: write_back(21.062120)
F:  2992475----T:  2995561 	 St: c0a00000 Sz: 12288 	 Sm: 0 	 T: memcpy_h2d(2.083727)
F:  2992475----T:  3001177 	 St: c0a80000 Sz: 65536 	 Sm: 0 	 T: write_back(5.875760)
F:  3001177----T:  3009879 	 St: c0a90000 Sz: 65536 	 Sm: 0 	 T: write_back(5.875760)
F:  3009879----T:  3026042 	 St: c0aa0000 Sz: 131072 	 Sm: 0 	 T: write_back(10.913572)
F:  3026042----T:  3085937 	 St: c0a03000 Sz: 512000 	 Sm: 0 	 T: memcpy_h2d(40.442268)
F:  3026042----T:  3057235 	 St: c0ac0000 Sz: 262144 	 Sm: 0 	 T: write_back(21.062120)
F:  3091561----T:  3094647 	 St: c0200000 Sz: 12288 	 Sm: 0 	 T: memcpy_h2d(2.083727)
F:  3092627----T:  3101329 	 St: c0400000 Sz: 65536 	 Sm: 0 	 T: write_back(5.875760)
F:  3094647----T:  3101969 	 St: c0203000 Sz: 53248 	 Sm: 0 	 T: memcpy_h2d(4.943957)
F:  3101969----T:  3107484 	 St: c0210000 Sz: 36864 	 Sm: 0 	 T: memcpy_h2d(3.723835)
F:  3107484----T:  3112125 	 St: c0219000 Sz: 28672 	 Sm: 0 	 T: memcpy_h2d(3.133693)
F:  3119464----T:  3122069 	 St: c0220000 Sz: 4096 	 Sm: 0 	 T: memcpy_h2d(1.758947)
F:  3119464----T:  3128166 	 St: c0410000 Sz: 65536 	 Sm: 0 	 T: write_back(5.875760)
F:  3128167----T:  3143862 	 St: c0221000 Sz: 126976 	 Sm: 0 	 T: memcpy_h2d(10.597569)
F:  3128167----T:  3144330 	 St: c0420000 Sz: 131072 	 Sm: 0 	 T: write_back(10.913572)
F:  3151239----T:  3153844 	 St: c0240000 Sz: 4096 	 Sm: 0 	 T: memcpy_h2d(1.758947)
F:  3151239----T:  3182432 	 St: c0440000 Sz: 262144 	 Sm: 0 	 T: write_back(21.062120)
F:  3153844----T:  3184567 	 St: c0241000 Sz: 258048 	 Sm: 0 	 T: memcpy_h2d(20.744766)
F:  3193647----T:  3196733 	 St: c0a80000 Sz: 12288 	 Sm: 0 	 T: memcpy_h2d(2.083727)
F:  3193647----T:  3254954 	 St: c0480000 Sz: 524288 	 Sm: 0 	 T: write_back(41.395679)
F:  3196733----T:  3256628 	 St: c0a83000 Sz: 512000 	 Sm: 0 	 T: memcpy_h2d(40.442268)
F:  3262299----T:  3264904 	 St: c0280000 Sz: 4096 	 Sm: 0 	 T: memcpy_h2d(1.758947)
F:  3262299----T:  3383859 	 St: c0500000 Sz: 1048576 	 Sm: 0 	 T: write_back(82.079674)
F:  3264904----T:  3325740 	 St: c0281000 Sz: 520192 	 Sm: 0 	 T: memcpy_h2d(41.077652)
F:  3414386----T:  3416991 	 St: c0300000 Sz: 4096 	 Sm: 0 	 T: memcpy_h2d(1.758947)
F:  3414386----T:  3423088 	 St: c0800000 Sz: 65536 	 Sm: 0 	 T: write_back(5.875760)
F:  3423088----T:  3431790 	 St: c0810000 Sz: 65536 	 Sm: 0 	 T: write_back(5.875760)
F:  3431790----T:  3447953 	 St: c0820000 Sz: 131072 	 Sm: 0 	 T: write_back(10.913572)
F:  3447953----T:  3569042 	 St: c0301000 Sz: 1044480 	 Sm: 0 	 T: memcpy_h2d(81.761650)
F:  3447953----T:  3479146 	 St: c0840000 Sz: 262144 	 Sm: 0 	 T: write_back(21.062120)
F:  3857526----T:  5131443 	 	 	 Kl: 3 	 Sm: 0 	 T: kernel_launch(860.173523)
F:  3858253----T:  3861339 	 St: c0800000 Sz: 12288 	 Sm: 0 	 T: memcpy_h2d(2.083727)
F:  3858253----T:  3866955 	 St: c0880000 Sz: 65536 	 Sm: 0 	 T: write_back(5.875760)
F:  3866955----T:  3875657 	 St: c0890000 Sz: 65536 	 Sm: 0 	 T: write_back(5.875760)
F:  3875657----T:  3891820 	 St: c08a0000 Sz: 131072 	 Sm: 0 	 T: write_back(10.913572)
F:  3891820----T:  3951715 	 St: c0803000 Sz: 512000 	 Sm: 0 	 T: memcpy_h2d(40.442268)
F:  3891820----T:  3923013 	 St: c08c0000 Sz: 262144 	 Sm: 0 	 T: write_back(21.062120)
F:  3957261----T:  3959866 	 St: c0400000 Sz: 4096 	 Sm: 0 	 T: memcpy_h2d(1.758947)
F:  3957807----T:  3966509 	 St: c0600000 Sz: 65536 	 Sm: 0 	 T: write_back(5.875760)
F:  3959866----T:  3968106 	 St: c0401000 Sz: 61440 	 Sm: 0 	 T: memcpy_h2d(5.563808)
F:  3966509----T:  3975211 	 St: c0610000 Sz: 65536 	 Sm: 0 	 T: write_back(5.875760)
F:  3968106----T:  3970711 	 St: c0410000 Sz: 4096 	 Sm: 0 	 T: memcpy_h2d(1.758947)
F:  3970711----T:  3978951 	 St: c0411000 Sz: 61440 	 Sm: 0 	 T: memcpy_h2d(5.563808)
F:  3975212----T:  3991375 	 St: c0620000 Sz: 131072 	 Sm: 0 	 T: write_back(10.913572)
F:  3978951----T:  3981556 	 St: c0420000 Sz: 4096 	 Sm: 0 	 T: memcpy_h2d(1.758947)
F:  3981556----T:  3997251 	 St: c0421000 Sz: 126976 	 Sm: 0 	 T: memcpy_h2d(10.597569)
F:  4011405----T:  4014010 	 St: c0440000 Sz: 4096 	 Sm: 0 	 T: memcpy_h2d(1.758947)
F:  4011405----T:  4042598 	 St: c0640000 Sz: 262144 	 Sm: 0 	 T: write_back(21.062120)
F:  4014010----T:  4044733 	 St: c0441000 Sz: 258048 	 Sm: 0 	 T: memcpy_h2d(20.744766)
F:  4053586----T:  4056672 	 St: c0880000 Sz: 12288 	 Sm: 0 	 T: memcpy_h2d(2.083727)
F:  4053586----T:  4114893 	 St: c0680000 Sz: 524288 	 Sm: 0 	 T: write_back(41.395679)
F:  4056672----T:  4116567 	 St: c0883000 Sz: 512000 	 Sm: 0 	 T: memcpy_h2d(40.442268)
F:  4122093----T:  4125179 	 St: c0480000 Sz: 12288 	 Sm: 0 	 T: memcpy_h2d(2.083727)
F:  4122093----T:  4243653 	 St: c0700000 Sz: 1048576 	 Sm: 0 	 T: write_back(82.079674)
F:  4125179----T:  4185074 	 St: c0483000 Sz: 512000 	 Sm: 0 	 T: memcpy_h2d(40.442268)
F:  4274456----T:  4277542 	 St: c0500000 Sz: 12288 	 Sm: 0 	 T: memcpy_h2d(2.083727)
F:  4274456----T:  4283158 	 St: c0a00000 Sz: 65536 	 Sm: 0 	 T: write_back(5.875760)
F:  4283158----T:  4291860 	 St: c0a10000 Sz: 65536 	 Sm: 0 	 T: write_back(5.875760)
F:  4291860----T:  4308023 	 St: c0a20000 Sz: 131072 	 Sm: 0 	 T: write_back(10.913572)
F:  4308023----T:  4428171 	 St: c0503000 Sz: 1036288 	 Sm: 0 	 T: memcpy_h2d(81.126266)
F:  4308023----T:  4339216 	 St: c0a40000 Sz: 262144 	 Sm: 0 	 T: write_back(21.062120)
F:  4488559----T:  4491645 	 St: c0a00000 Sz: 12288 	 Sm: 0 	 T: memcpy_h2d(2.083727)
F:  4488559----T:  4497261 	 St: c0a80000 Sz: 65536 	 Sm: 0 	 T: write_back(5.875760)
F:  4497261----T:  4505963 	 St: c0a90000 Sz: 65536 	 Sm: 0 	 T: write_back(5.875760)
F:  4505963----T:  4522126 	 St: c0aa0000 Sz: 131072 	 Sm: 0 	 T: write_back(10.913572)
F:  4522126----T:  4582021 	 St: c0a03000 Sz: 512000 	 Sm: 0 	 T: memcpy_h2d(40.442268)
F:  4522126----T:  4553319 	 St: c0ac0000 Sz: 262144 	 Sm: 0 	 T: write_back(21.062120)
F:  4587517----T:  4590603 	 St: c0600000 Sz: 12288 	 Sm: 0 	 T: memcpy_h2d(2.083727)
F:  4588700----T:  4597402 	 St: c0000000 Sz: 65536 	 Sm: 0 	 T: write_back(5.875760)
F:  4590603----T:  4597925 	 St: c0603000 Sz: 53248 	 Sm: 0 	 T: memcpy_h2d(4.943957)
F:  4597925----T:  4603440 	 St: c0610000 Sz: 36864 	 Sm: 0 	 T: memcpy_h2d(3.723835)
F:  4603440----T:  4608081 	 St: c0619000 Sz: 28672 	 Sm: 0 	 T: memcpy_h2d(3.133693)
F:  4615501----T:  4618106 	 St: c0620000 Sz: 4096 	 Sm: 0 	 T: memcpy_h2d(1.758947)
F:  4615501----T:  4624203 	 St: c0010000 Sz: 65536 	 Sm: 0 	 T: write_back(5.875760)
F:  4624204----T:  4639899 	 St: c0621000 Sz: 126976 	 Sm: 0 	 T: memcpy_h2d(10.597569)
F:  4624204----T:  4640367 	 St: c0020000 Sz: 131072 	 Sm: 0 	 T: write_back(10.913572)
F:  4647119----T:  4649724 	 St: c0640000 Sz: 4096 	 Sm: 0 	 T: memcpy_h2d(1.758947)
F:  4647119----T:  4678312 	 St: c0040000 Sz: 262144 	 Sm: 0 	 T: write_back(21.062120)
F:  4649724----T:  4680447 	 St: c0641000 Sz: 258048 	 Sm: 0 	 T: memcpy_h2d(20.744766)
F:  4689569----T:  4692655 	 St: c0a80000 Sz: 12288 	 Sm: 0 	 T: memcpy_h2d(2.083727)
F:  4689569----T:  4750876 	 St: c0080000 Sz: 524288 	 Sm: 0 	 T: write_back(41.395679)
F:  4692655----T:  4752550 	 St: c0a83000 Sz: 512000 	 Sm: 0 	 T: memcpy_h2d(40.442268)
F:  4758162----T:  4760767 	 St: c0680000 Sz: 4096 	 Sm: 0 	 T: memcpy_h2d(1.758947)
F:  4758162----T:  4879722 	 St: c0100000 Sz: 1048576 	 Sm: 0 	 T: write_back(82.079674)
F:  4760767----T:  4821603 	 St: c0681000 Sz: 520192 	 Sm: 0 	 T: memcpy_h2d(41.077652)
F:  4910720----T:  4913325 	 St: c0700000 Sz: 4096 	 Sm: 0 	 T: memcpy_h2d(1.758947)
F:  4910720----T:  4919422 	 St: c0800000 Sz: 65536 	 Sm: 0 	 T: write_back(5.875760)
F:  4919422----T:  4928124 	 St: c0810000 Sz: 65536 	 Sm: 0 	 T: write_back(5.875760)
F:  4928124----T:  4944287 	 St: c0820000 Sz: 131072 	 Sm: 0 	 T: write_back(10.913572)
F:  4944287----T:  5065376 	 St: c0701000 Sz: 1044480 	 Sm: 0 	 T: memcpy_h2d(81.761650)
F:  4944287----T:  4975480 	 St: c0840000 Sz: 262144 	 Sm: 0 	 T: write_back(21.062120)
F:  5353593----T:  6627522 	 	 	 Kl: 4 	 Sm: 0 	 T: kernel_launch(860.181641)
F:  5354332----T:  5357418 	 St: c0800000 Sz: 12288 	 Sm: 0 	 T: memcpy_h2d(2.083727)
F:  5354332----T:  5363034 	 St: c0880000 Sz: 65536 	 Sm: 0 	 T: write_back(5.875760)
F:  5363034----T:  5371736 	 St: c0890000 Sz: 65536 	 Sm: 0 	 T: write_back(5.875760)
F:  5371736----T:  5387899 	 St: c08a0000 Sz: 131072 	 Sm: 0 	 T: write_back(10.913572)
F:  5387899----T:  5447794 	 St: c0803000 Sz: 512000 	 Sm: 0 	 T: memcpy_h2d(40.442268)
F:  5387899----T:  5419092 	 St: c08c0000 Sz: 262144 	 Sm: 0 	 T: write_back(21.062120)
F:  5453378----T:  5455983 	 St: c0000000 Sz: 4096 	 Sm: 0 	 T: memcpy_h2d(1.758947)
F:  5453867----T:  5462569 	 St: c0200000 Sz: 65536 	 Sm: 0 	 T: write_back(5.875760)
F:  5455983----T:  5464223 	 St: c0001000 Sz: 61440 	 Sm: 0 	 T: memcpy_h2d(5.563808)
F:  5462569----T:  5471271 	 St: c0210000 Sz: 65536 	 Sm: 0 	 T: write_back(5.875760)
F:  5464223----T:  5466828 	 St: c0010000 Sz: 4096 	 Sm: 0 	 T: memcpy_h2d(1.758947)
F:  5466828----T:  5475068 	 St: c0011000 Sz: 61440 	 Sm: 0 	 T: memcpy_h2d(5.563808)
F:  5471272----T:  5487435 	 St: c0220000 Sz: 131072 	 Sm: 0 	 T: write_back(10.913572)
F:  5475068----T:  5478154 	 St: c0020000 Sz: 12288 	 Sm: 0 	 T: memcpy_h2d(2.083727)
F:  5478154----T:  5492912 	 St: c0023000 Sz: 118784 	 Sm: 0 	 T: memcpy_h2d(9.964889)
F:  5507383----T:  5509988 	 St: c0040000 Sz: 4096 	 Sm: 0 	 T: memcpy_h2d(1.758947)
F:  5507383----T:  5538576 	 St: c0240000 Sz: 262144 	 Sm: 0 	 T: write_back(21.062120)
F:  5509988----T:  5540711 	 St: c0041000 Sz: 258048 	 Sm: 0 	 T: memcpy_h2d(20.744766)
F:  5549593----T:  5552198 	 St: c0880000 Sz: 4096 	 Sm: 0 	 T: memcpy_h2d(1.758947)
F:  5549593----T:  5610900 	 St: c0280000 Sz: 524288 	 Sm: 0 	 T: write_back(41.395679)
F:  5552198----T:  5613034 	 St: c0881000 Sz: 520192 	 Sm: 0 	 T: memcpy_h2d(41.077652)
F:  5618680----T:  5621766 	 St: c0080000 Sz: 12288 	 Sm: 0 	 T: memcpy_h2d(2.083727)
F:  5618680----T:  5740240 	 St: c0300000 Sz: 1048576 	 Sm: 0 	 T: write_back(82.079674)
F:  5621766----T:  5681661 	 St: c0083000 Sz: 512000 	 Sm: 0 	 T: memcpy_h2d(40.442268)
F:  5770655----T:  5775296 	 St: c0100000 Sz: 28672 	 Sm: 0 	 T: memcpy_h2d(3.133693)
F:  5770655----T:  5779357 	 St: c0a00000 Sz: 65536 	 Sm: 0 	 T: write_back(5.875760)
F:  5779357----T:  5788059 	 St: c0a10000 Sz: 65536 	 Sm: 0 	 T: write_back(5.875760)
F:  5788059----T:  5804222 	 St: c0a20000 Sz: 131072 	 Sm: 0 	 T: write_back(10.913572)
F:  5804222----T:  5922487 	 St: c0107000 Sz: 1019904 	 Sm: 0 	 T: memcpy_h2d(79.854828)
F:  5804222----T:  5835415 	 St: c0a40000 Sz: 262144 	 Sm: 0 	 T: write_back(21.062120)
F:  5982933----T:  5986019 	 St: c0a00000 Sz: 12288 	 Sm: 0 	 T: memcpy_h2d(2.083727)
F:  5982933----T:  5991635 	 St: c0a80000 Sz: 65536 	 Sm: 0 	 T: write_back(5.875760)
F:  5991635----T:  6000337 	 St: c0a90000 Sz: 65536 	 Sm: 0 	 T: write_back(5.875760)
F:  6000337----T:  6016500 	 St: c0aa0000 Sz: 131072 	 Sm: 0 	 T: write_back(10.913572)
F:  6016500----T:  6076395 	 St: c0a03000 Sz: 512000 	 Sm: 0 	 T: memcpy_h2d(40.442268)
F:  6016500----T:  6047693 	 St: c0ac0000 Sz: 262144 	 Sm: 0 	 T: write_back(21.062120)
F:  6081951----T:  6084556 	 St: c0200000 Sz: 4096 	 Sm: 0 	 T: memcpy_h2d(1.758947)
F:  6083249----T:  6091951 	 St: c0400000 Sz: 65536 	 Sm: 0 	 T: write_back(5.875760)
F:  6084556----T:  6092796 	 St: c0201000 Sz: 61440 	 Sm: 0 	 T: memcpy_h2d(5.563808)
F:  6092796----T:  6095401 	 St: c0210000 Sz: 4096 	 Sm: 0 	 T: memcpy_h2d(1.758947)
F:  6095401----T:  6103641 	 St: c0211000 Sz: 61440 	 Sm: 0 	 T: memcpy_h2d(5.563808)
F:  6110810----T:  6113896 	 St: c0220000 Sz: 12288 	 Sm: 0 	 T: memcpy_h2d(2.083727)
F:  6110810----T:  6119512 	 St: c0410000 Sz: 65536 	 Sm: 0 	 T: write_back(5.875760)
F:  6119513----T:  6134271 	 St: c0223000 Sz: 118784 	 Sm: 0 	 T: memcpy_h2d(9.964889)
F:  6119513----T:  6135676 	 St: c0420000 Sz: 131072 	 Sm: 0 	 T: write_back(10.913572)
F:  6142952----T:  6145557 	 St: c0240000 Sz: 4096 	 Sm: 0 	 T: memcpy_h2d(1.758947)
F:  6142952----T:  6174145 	 St: c0440000 Sz: 262144 	 Sm: 0 	 T: write_back(21.062120)
F:  6145557----T:  6176280 	 St: c0241000 Sz: 258048 	 Sm: 0 	 T: memcpy_h2d(20.744766)
F:  6185319----T:  6187924 	 St: c0a80000 Sz: 4096 	 Sm: 0 	 T: memcpy_h2d(1.758947)
F:  6185319----T:  6246626 	 St: c0480000 Sz: 524288 	 Sm: 0 	 T: write_back(41.395679)
F:  6187924----T:  6248760 	 St: c0a81000 Sz: 520192 	 Sm: 0 	 T: memcpy_h2d(41.077652)
F:  6254473----T:  6257078 	 St: c0280000 Sz: 4096 	 Sm: 0 	 T: memcpy_h2d(1.758947)
F:  6254473----T:  6376033 	 St: c0500000 Sz: 1048576 	 Sm: 0 	 T: write_back(82.079674)
F:  6257078----T:  6317914 	 St: c0281000 Sz: 520192 	 Sm: 0 	 T: memcpy_h2d(41.077652)
F:  6406486----T:  6409091 	 St: c0300000 Sz: 4096 	 Sm: 0 	 T: memcpy_h2d(1.758947)
F:  6406486----T:  6415188 	 St: c0800000 Sz: 65536 	 Sm: 0 	 T: write_back(5.875760)
F:  6415188----T:  6423890 	 St: c0810000 Sz: 65536 	 Sm: 0 	 T: write_back(5.875760)
F:  6423890----T:  6440053 	 St: c0820000 Sz: 131072 	 Sm: 0 	 T: write_back(10.913572)
F:  6440053----T:  6561142 	 St: c0301000 Sz: 1044480 	 Sm: 0 	 T: memcpy_h2d(81.761650)
F:  6440053----T:  6471246 	 St: c0840000 Sz: 262144 	 Sm: 0 	 T: write_back(21.062120)
F:  6627522----T:  6630127 	 St: 0 Sz: 4096 	 Sm: 0 	 T: device_sync(1.758947)
F:  6627522----T:  6635762 	 St: 0 Sz: 61440 	 Sm: 0 	 T: device_sync(5.563808)
F:  6638367----T:  6640972 	 St: 0 Sz: 4096 	 Sm: 0 	 T: device_sync(1.758947)
F:  6638367----T:  6646607 	 St: 0 Sz: 61440 	 Sm: 0 	 T: device_sync(5.563808)
F:  6649212----T:  6651817 	 St: 0 Sz: 4096 	 Sm: 0 	 T: device_sync(1.758947)
F:  6649212----T:  6664907 	 St: 0 Sz: 126976 	 Sm: 0 	 T: device_sync(10.597569)
F:  6667512----T:  6670117 	 St: 0 Sz: 4096 	 Sm: 0 	 T: device_sync(1.758947)
F:  6667512----T:  6698235 	 St: 0 Sz: 258048 	 Sm: 0 	 T: device_sync(20.744766)
F:  6700840----T:  6703445 	 St: 0 Sz: 4096 	 Sm: 0 	 T: device_sync(1.758947)
F:  6700840----T:  6761676 	 St: 0 Sz: 520192 	 Sm: 0 	 T: device_sync(41.077652)
F:  6764281----T:  6766886 	 St: 0 Sz: 4096 	 Sm: 0 	 T: device_sync(1.758947)
F:  6764281----T:  6885370 	 St: 0 Sz: 1044480 	 Sm: 0 	 T: device_sync(81.761650)
F:  6887975----T:  6890580 	 St: 0 Sz: 4096 	 Sm: 0 	 T: device_sync(1.758947)
F:  6887975----T:  6896215 	 St: 0 Sz: 61440 	 Sm: 0 	 T: device_sync(5.563808)
F:  6898820----T:  6901425 	 St: 0 Sz: 4096 	 Sm: 0 	 T: device_sync(1.758947)
F:  6898820----T:  6907060 	 St: 0 Sz: 61440 	 Sm: 0 	 T: device_sync(5.563808)
F:  6909665----T:  6912270 	 St: 0 Sz: 4096 	 Sm: 0 	 T: device_sync(1.758947)
F:  6909665----T:  6925360 	 St: 0 Sz: 126976 	 Sm: 0 	 T: device_sync(10.597569)
F:  6927965----T:  6930570 	 St: 0 Sz: 4096 	 Sm: 0 	 T: device_sync(1.758947)
F:  6927965----T:  6958688 	 St: 0 Sz: 258048 	 Sm: 0 	 T: device_sync(20.744766)
F:  6961293----T:  6963898 	 St: 0 Sz: 4096 	 Sm: 0 	 T: device_sync(1.758947)
F:  6961293----T:  7022129 	 St: 0 Sz: 520192 	 Sm: 0 	 T: device_sync(41.077652)
F:  7024734----T:  7027339 	 St: 0 Sz: 4096 	 Sm: 0 	 T: device_sync(1.758947)
F:  7024734----T:  7145823 	 St: 0 Sz: 1044480 	 Sm: 0 	 T: device_sync(81.761650)
F:  7148428----T:  7151033 	 St: 0 Sz: 4096 	 Sm: 0 	 T: device_sync(1.758947)
F:  7148428----T:  7156668 	 St: 0 Sz: 61440 	 Sm: 0 	 T: device_sync(5.563808)
F:  7159273----T:  7161878 	 St: 0 Sz: 4096 	 Sm: 0 	 T: device_sync(1.758947)
F:  7159273----T:  7167513 	 St: 0 Sz: 61440 	 Sm: 0 	 T: device_sync(5.563808)
F:  7170118----T:  7172723 	 St: 0 Sz: 4096 	 Sm: 0 	 T: device_sync(1.758947)
F:  7170118----T:  7185813 	 St: 0 Sz: 126976 	 Sm: 0 	 T: device_sync(10.597569)
F:  7188418----T:  7191023 	 St: 0 Sz: 4096 	 Sm: 0 	 T: device_sync(1.758947)
F:  7188418----T:  7219141 	 St: 0 Sz: 258048 	 Sm: 0 	 T: device_sync(20.744766)
F:  7221746----T:  7224351 	 St: 0 Sz: 4096 	 Sm: 0 	 T: device_sync(1.758947)
F:  7221746----T:  7282582 	 St: 0 Sz: 520192 	 Sm: 0 	 T: device_sync(41.077652)
F:  7285187----T:  7287792 	 St: 0 Sz: 4096 	 Sm: 0 	 T: device_sync(1.758947)
F:  7285187----T:  7406276 	 St: 0 Sz: 1044480 	 Sm: 0 	 T: device_sync(81.761650)
Tot_prefetch_time: 0(cycle), 0.000000(us)
Tot_kernel_exec_time: 5738922(cycle), 3875.031738(us)
Tot_kernel_exec_time_and_fault_time: 11337102(cycle), 7655.031738(us)
Tot_memcpy_h2d_time: 3870486(cycle), 2613.427490(us)
Tot_memcpy_d2h_time: 0(cycle), 0.000000(us)
Tot_memcpy_time: 3870486(cycle), 2613.427490(us)
Tot_devicesync_time: 781359(cycle), 527.588806(us)
Tot_writeback_time: 2575269(cycle), 1738.871704(us)
Tot_dma_time: 0(cycle), 0.000000(us)
Tot_memcpy_d2h_sync_wb_time: 3356628(cycle), 2266.460449(us)
GPGPU-Sim: *** exit detected ***
