

        *** GPGPU-Sim Simulator Version 3.2.2  [build gpgpu-sim_git-commit-7c62de1d26a7fea160a1181332b97276bc435f13_modified_409] ***


GPGPU-Sim PTX: simulation mode 0 (can change with PTX_SIM_MODE_FUNC environment variable:
               1=functional simulation only, 0=detailed performance simulator)
GPGPU-Sim: Configuration options:

-network_mode                           1 # Interconnection network mode
-inter_config_file   config_fermi_islip.icnt # Interconnection network config file
-gpgpu_ptx_use_cuobjdump                    1 # Use cuobjdump to extract ptx and sass from binaries
-gpgpu_experimental_lib_support                    0 # Try to extract code from cuda libraries [Broken because of unknown cudaGetExportTable]
-gpgpu_ptx_convert_to_ptxplus                    0 # Convert SASS (native ISA) to ptxplus and run ptxplus
-gpgpu_ptx_force_max_capability                   20 # Force maximum compute capability
-gpgpu_ptx_inst_debug_to_file                    0 # Dump executed instructions' debug information to file
-gpgpu_ptx_inst_debug_file       inst_debug.txt # Executed instructions' debug output file
-gpgpu_ptx_inst_debug_thread_uid                    1 # Thread UID for executed instructions' debug output
-gpgpu_simd_model                       1 # 1 = post-dominator
-gpgpu_shader_core_pipeline              2048:32 # shader core pipeline config, i.e., {<nthread>:<warpsize>}
-gpgpu_tex_cache:l1  16:128:24,L:R:m:N:L,F:128:4,128:2 # per-shader L1 texture cache  (READ-ONLY) config  {<nsets>:<bsize>:<assoc>,<rep>:<wr>:<alloc>:<wr_alloc>,<mshr>:<N>:<merge>,<mq>:<rf>}
-gpgpu_const_cache:l1 128:64:2,L:R:f:N:L,A:2:64,4 # per-shader L1 constant memory cache  (READ-ONLY) config  {<nsets>:<bsize>:<assoc>,<rep>:<wr>:<alloc>:<wr_alloc>,<mshr>:<N>:<merge>,<mq>} 
-gpgpu_cache:il1     8:128:4,L:R:f:N:L,A:2:48,4 # shader L1 instruction cache config  {<nsets>:<bsize>:<assoc>,<rep>:<wr>:<alloc>:<wr_alloc>,<mshr>:<N>:<merge>,<mq>} 
-gpgpu_cache:dl1     64:128:6,L:L:m:N:H,A:128:8,8 # per-shader L1 data cache config  {<nsets>:<bsize>:<assoc>,<rep>:<wr>:<alloc>:<wr_alloc>,<mshr>:<N>:<merge>,<mq> | none}
-gpgpu_cache:dl1PrefL1                 none # per-shader L1 data cache config  {<nsets>:<bsize>:<assoc>,<rep>:<wr>:<alloc>:<wr_alloc>,<mshr>:<N>:<merge>,<mq> | none}
-gpgpu_cache:dl1PrefShared                 none # per-shader L1 data cache config  {<nsets>:<bsize>:<assoc>,<rep>:<wr>:<alloc>:<wr_alloc>,<mshr>:<N>:<merge>,<mq> | none}
-gmem_skip_L1D                          1 # global memory access skip L1D cache (implements -Xptxas -dlcm=cg, default=no skip)
-gpgpu_perfect_mem                      0 # enable perfect memory mode (no cache miss)
-n_regfile_gating_group                    4 # group of lanes that should be read/written together)
-gpgpu_clock_gated_reg_file                    0 # enable clock gated reg file for power calculations
-gpgpu_clock_gated_lanes                    0 # enable clock gated lanes for power calculations
-gpgpu_shader_registers                65536 # Number of registers per shader core. Limits number of concurrent CTAs. (default 8192)
-gpgpu_shader_cta                      32 # Maximum number of concurrent CTAs in shader (default 8)
-gpgpu_num_cta_barriers                   16 # Maximum number of named barriers per CTA (default 16)
-gpgpu_n_clusters                      28 # number of processing clusters
-gpgpu_n_cores_per_cluster                    1 # number of simd cores per cluster
-gpgpu_n_cluster_ejection_buffer_size                    8 # number of packets in ejection buffer
-gpgpu_n_ldst_response_buffer_size                    2 # number of response packets in ld/st unit ejection buffer
-gpgpu_shmem_size                   16384 # Size of shared memory per shader core (default 16kB)
-gpgpu_shmem_size                   98304 # Size of shared memory per shader core (default 16kB)
-gpgpu_shmem_size_PrefL1                16384 # Size of shared memory per shader core (default 16kB)
-gpgpu_shmem_size_PrefShared                16384 # Size of shared memory per shader core (default 16kB)
-gpgpu_shmem_num_banks                   32 # Number of banks in the shared memory in each shader core (default 16)
-gpgpu_shmem_limited_broadcast                    0 # Limit shared memory to do one broadcast per cycle (default on)
-gpgpu_shmem_warp_parts                    1 # Number of portions a warp is divided into for shared memory bank conflict check 
-gpgpu_warpdistro_shader                   -1 # Specify which shader core to collect the warp size distribution from
-gpgpu_warp_issue_shader                    0 # Specify which shader core to collect the warp issue distribution from
-gpgpu_local_mem_map                    1 # Mapping from local memory space address to simulated GPU physical address space (default = enabled)
-gpgpu_num_reg_banks                   32 # Number of register banks (default = 8)
-gpgpu_reg_bank_use_warp_id                    0 # Use warp ID in mapping registers to banks (default = off)
-gpgpu_operand_collector_num_units_sp                   20 # number of collector units (default = 4)
-gpgpu_operand_collector_num_units_sfu                    4 # number of collector units (default = 4)
-gpgpu_operand_collector_num_units_mem                    8 # number of collector units (default = 2)
-gpgpu_operand_collector_num_units_gen                    0 # number of collector units (default = 0)
-gpgpu_operand_collector_num_in_ports_sp                    4 # number of collector unit in ports (default = 1)
-gpgpu_operand_collector_num_in_ports_sfu                    1 # number of collector unit in ports (default = 1)
-gpgpu_operand_collector_num_in_ports_mem                    1 # number of collector unit in ports (default = 1)
-gpgpu_operand_collector_num_in_ports_gen                    0 # number of collector unit in ports (default = 0)
-gpgpu_operand_collector_num_out_ports_sp                    4 # number of collector unit in ports (default = 1)
-gpgpu_operand_collector_num_out_ports_sfu                    1 # number of collector unit in ports (default = 1)
-gpgpu_operand_collector_num_out_ports_mem                    1 # number of collector unit in ports (default = 1)
-gpgpu_operand_collector_num_out_ports_gen                    0 # number of collector unit in ports (default = 0)
-gpgpu_coalesce_arch                   13 # Coalescing arch (default = 13, anything else is off for now)
-gpgpu_num_sched_per_core                    2 # Number of warp schedulers per core
-gpgpu_max_insn_issue_per_warp                    2 # Max number of instructions that can be issued per warp in one cycle by scheduler
-gpgpu_simt_core_sim_order                    1 # Select the simulation order of cores in a cluster (0=Fix, 1=Round-Robin)
-gpgpu_pipeline_widths        4,1,1,4,1,1,6 # Pipeline widths ID_OC_SP,ID_OC_SFU,ID_OC_MEM,OC_EX_SP,OC_EX_SFU,OC_EX_MEM,EX_WB
-gpgpu_num_sp_units                     4 # Number of SP units (default=1)
-gpgpu_num_sfu_units                    1 # Number of SF units (default=1)
-gpgpu_num_mem_units                    1 # Number if ldst units (default=1) WARNING: not hooked up to anything
-gpgpu_scheduler                      gto # Scheduler configuration: < lrr | gto | two_level_active > If two_level_active:<num_active_warps>:<inner_prioritization>:<outer_prioritization>For complete list of prioritization values see shader.h enum scheduler_prioritization_typeDefault: gto
-gpgpu_concurrent_kernel_sm                    0 # Support concurrent kernels on a SM (default = disabled)
-tlb_size                            4096 # Number of tlb entries per SM.
-gpgpu_dram_scheduler                    1 # 0 = fifo, 1 = FR-FCFS (defaul)
-gpgpu_dram_partition_queues              8:8:8:8 # i2$:$2d:d2$:$2i
-l2_ideal                               0 # Use a ideal L2 cache that always hit
-gpgpu_cache:dl2     64:128:16,L:B:m:W:L,A:1024:1024,4:0,32 # unified banked L2 data cache config  {<nsets>:<bsize>:<assoc>,<rep>:<wr>:<alloc>:<wr_alloc>,<mshr>:<N>:<merge>,<mq>}
-gpgpu_cache:dl2_texture_only                    0 # L2 cache used for texture only
-gpgpu_n_mem                           11 # number of memory modules (e.g. memory controllers) in gpu
-gpgpu_n_sub_partition_per_mchannel                    2 # number of memory subpartition in each memory module
-gpgpu_n_mem_per_ctrlr                    1 # number of memory chips per memory controller
-gpgpu_memlatency_stat                   14 # track and display latency statistics 0x2 enables MC, 0x4 enables queue logs
-gpgpu_frfcfs_dram_sched_queue_size                   64 # 0 = unlimited (default); # entries per chip
-gpgpu_dram_return_queue_size                  116 # 0 = unlimited (default); # entries per chip
-gpgpu_dram_buswidth                    4 # default = 4 bytes (8 bytes per cycle at DDR)
-gpgpu_dram_burst_length                    8 # Burst length of each DRAM request (default = 4 data bus cycle)
-dram_data_command_freq_ratio                    4 # Frequency ratio between DRAM data bus and command bus (default = 2 times, i.e. DDR)
-gpgpu_dram_timing_opt nbk=16:CCD=2:RRD=6:RCD=12:RAS=28:RP=12:RC=40: CL=12:WL=4:CDLR=5:WR=12:nbkgrp=1:CCDL=0:RTPL=0 # DRAM timing parameters = {nbk:tCCD:tRRD:tRCD:tRAS:tRP:tRC:CL:WL:tCDLR:tWR:nbkgrp:tCCDL:tRTPL}
-rop_latency                          120 # ROP queue latency (default 85)
-dram_latency                         100 # DRAM latency (default 30)
-gpgpu_mem_addr_mapping dramid@8;00000000.00000000.00000000.00000000.0000RRRR.RRRRRRRR.RBBBCCCC.BCCSSSSS # mapping memory address to dram model {dramid@<start bit>;<memory address map>}
-gpgpu_mem_addr_test                    0 # run sweep test to check address mapping for aliased address
-gpgpu_mem_address_mask                    1 # 0 = old addressing mask, 1 = new addressing mask, 2 = new add. mask + flipped bank sel and chip sel bits
-gpuwattch_xml_file  gpuwattch_geforcegtx1080ti.xml # GPUWattch XML file
-power_simulation_enabled                    1 # Turn on power simulator (1=On, 0=Off)
-power_per_cycle_dump                    0 # Dump detailed power output each cycle
-power_trace_enabled                    0 # produce a file for the power trace (1=On, 0=Off)
-power_trace_zlevel                     6 # Compression level of the power trace output log (0=no comp, 9=highest)
-steady_power_levels_enabled                    0 # produce a file for the steady power levels (1=On, 0=Off)
-steady_state_definition                  8:4 # allowed deviation:number of samples
-gpgpu_max_cycle                        0 # terminates gpu simulation early (0 = no limit)
-gpgpu_max_insn                         0 # terminates gpu simulation early (0 = no limit)
-gpgpu_max_cta                          0 # terminates gpu simulation early (0 = no limit)
-gpgpu_runtime_stat                   500 # display runtime statistics such as dram utilization {<freq>:<flag>}
-liveness_message_freq                    1 # Minimum number of seconds between simulation liveness messages (0 = always print)
-gpgpu_flush_l1_cache                    0 # Flush L1 cache at the end of each kernel call
-gpgpu_flush_l2_cache                    0 # Flush L2 cache at the end of each kernel call
-gpgpu_deadlock_detect                    0 # Stop the simulation at deadlock (1=on (default), 0=off)
-gpgpu_ptx_instruction_classification                    0 # if enabled will classify ptx instruction types per kernel (Max 255 kernels now)
-gpgpu_ptx_sim_mode                     0 # Select between Performance (default) or Functional simulation (1)
-gpgpu_clock_domains 1481.0:2962.0:1481.0:2750.0 # Clock Domain Frequencies in MhZ {<Core Clock>:<ICNT Clock>:<L2 Clock>:<DRAM Clock>}
-gpgpu_max_concurrent_kernel                    8 # maximum kernels that can run concurrently on GPU
-gpgpu_cflog_interval                    0 # Interval between each snapshot in control flow logger
-visualizer_enabled                     0 # Turn on visualizer output (1=On, 0=Off)
-visualizer_outputfile                 NULL # Specifies the output log file for visualizer
-visualizer_zlevel                      6 # Compression level of the visualizer output log (0=no comp, 9=highest)
-trace_enabled                          0 # Turn on traces
-trace_components                    none # comma seperated list of traces to enable. Complete list found in trace_streams.tup. Default none
-trace_sampling_core                    0 # The core which is printed using CORE_DPRINTF. Default 0
-trace_sampling_memory_partition                   -1 # The memory partition which is printed using MEMPART_DPRINTF. Default -1 (i.e. all)
-gddr_size                            1GB # Size of GDDR in MB/GB.(GLOBAL_HEAP_START, GLOBAL_HEAP_START + gddr_size) would be used for unmanged memory, (GLOBAL_HEAP_START + gddr_size, GLOBAL_HEAP_START + gddr_size*2) would be used for managed memory. 
-page_table_walk_latency                  100 # Average page table walk latency (in core cycle).
-eviction_policy                      lru # Memory eviction policy: lru or random.
-percentage_of_free_page_buffer                    0 # Percentage of free page buffer to trigger the page eviction.
-page_size                            4KB # GDDR page size, only 4KB/2MB avaliable.
-pcie_bandwith                   16.0GB/s # PCI-e bandwith per direction, in GB/s.
-sim_prof_enable                        1 # Enable gpgpu-sim profiler
-hardware_prefetch                      1 # Enable gpgpu-sim hardware prefetcher
-page_fault_latency                 66645 # Average fault latency (in core cycle).
-enable_accurate_simulation                    0 # Enable page fault functional simulation.
-enable_ptx_file_line_stats                    1 # Turn on PTX source line statistic profiling. (1 = On)
-ptx_line_stats_filename gpgpu_inst_stats.txt # Output file for PTX source line statistics.
-gpgpu_kernel_launch_latency               222150 # Kernel launch latency in cycles. Default: 0
-gpgpu_cdp_enabled                      0 # Turn on CDP
-save_embedded_ptx                      0 # saves ptx files embedded in binary as <n>.ptx
-keep                                   0 # keep intermediate files created by GPGPU-Sim when interfacing with external programs
-gpgpu_ptx_save_converted_ptxplus                    0 # Saved converted ptxplus to a file
-ptx_opcode_latency_int         4,13,4,5,145 # Opcode latencies for integers <ADD,MAX,MUL,MAD,DIV>Default 1,1,19,25,145
-ptx_opcode_latency_fp          4,13,4,5,39 # Opcode latencies for single precision floating points <ADD,MAX,MUL,MAD,DIV>Default 1,1,1,1,30
-ptx_opcode_latency_dp         8,19,8,8,330 # Opcode latencies for double precision floating points <ADD,MAX,MUL,MAD,DIV>Default 8,8,8,8,335
-ptx_opcode_initiation_int            1,2,2,2,8 # Opcode initiation intervals for integers <ADD,MAX,MUL,MAD,DIV>Default 1,1,4,4,32
-ptx_opcode_initiation_fp            1,2,1,1,4 # Opcode initiation intervals for single precision floating points <ADD,MAX,MUL,MAD,DIV>Default 1,1,1,1,5
-ptx_opcode_initiation_dp          1,2,1,1,130 # Opcode initiation intervals for double precision floating points <ADD,MAX,MUL,MAD,DIV>Default 8,8,8,8,130
-cdp_latency         7200,8000,100,12000,1600 # CDP API latency <cudaStreamCreateWithFlags, cudaGetParameterBufferV2_init_perWarp, cudaGetParameterBufferV2_perKernel, cudaLaunchDeviceV2_init_perWarp, cudaLaunchDevicV2_perKernel>Default 7200,8000,100,12000,1600
DRAM Timing Options:
nbk                                    16 # number of banks
CCD                                     2 # column to column delay
RRD                                     6 # minimal delay between activation of rows in different banks
RCD                                    12 # row to column delay
RAS                                    28 # time needed to activate row
RP                                     12 # time needed to precharge (deactivate) row
RC                                     40 # row cycle time
CDLR                                    5 # switching from write to read (changes tWTR)
WR                                     12 # last data-in to row precharge
CL                                     12 # CAS latency
WL                                      4 # Write latency
nbkgrp                                  1 # number of bank groups
CCDL                                    0 # column to column delay between accesses to different bank groups
RTPL                                    0 # read to precharge delay between accesses to different bank groups
Total number of memory sub partition = 22
addr_dec_mask[CHIP]  = 0000000000000000 	high:64 low:0
addr_dec_mask[BK]    = 0000000000007080 	high:15 low:7
addr_dec_mask[ROW]   = 000000000fff8000 	high:28 low:15
addr_dec_mask[COL]   = 0000000000000f7f 	high:12 low:0
addr_dec_mask[BURST] = 000000000000001f 	high:5 low:0
sub_partition_id_mask = 0000000000000080
GPGPU-Sim uArch: clock freqs: 1481000000.000000:2962000000.000000:1481000000.000000:2750000000.000000
GPGPU-Sim uArch: clock periods: 0.00000000067521944632:0.00000000033760972316:0.00000000067521944632:0.00000000036363636364
*** Initializing Memory Statistics ***
GPGPU-Sim uArch: interconnect node map (shaderID+MemID to icntID)
GPGPU-Sim uArch: Memory nodes ID start from index: 28
GPGPU-Sim uArch:    0   1   2   3   4   5   6
GPGPU-Sim uArch:    7   8   9  10  11  12  13
GPGPU-Sim uArch:   14  15  16  17  18  19  20
GPGPU-Sim uArch:   21  22  23  24  25  26  27
GPGPU-Sim uArch:   28  29  30  31  32  33  34
GPGPU-Sim uArch:   35  36  37  38  39  40  41
GPGPU-Sim uArch:   42  43  44  45  46  47  48
GPGPU-Sim uArch:   49
GPGPU-Sim uArch: interconnect node reverse map (icntID to shaderID+MemID)
GPGPU-Sim uArch: Memory nodes start from ID: 28
GPGPU-Sim uArch:    0   1   2   3   4   5   6
GPGPU-Sim uArch:    7   8   9  10  11  12  13
GPGPU-Sim uArch:   14  15  16  17  18  19  20
GPGPU-Sim uArch:   21  22  23  24  25  26  27
GPGPU-Sim uArch:   28  29  30  31  32  33  34
GPGPU-Sim uArch:   35  36  37  38  39  40  41
GPGPU-Sim uArch:   42  43  44  45  46  47  48
GPGPU-Sim uArch:   49
6e251b87824ef5011e17cf9d4f4bb00e  /home/gpuser/Documents/gpgpu-sim_UVM_user_prefetch/benchmarks/Managed/stencil/main
GPGPU-Sim uArch: performance model initialization complete.
GPGPU-Sim PTX: __cudaRegisterFatBinary, fat_cubin_handle = 1, filename=default
self exe links to: /home/gpuser/Documents/gpgpu-sim_UVM_user_prefetch/benchmarks/Managed/stencil/main
Running md5sum using "md5sum /home/gpuser/Documents/gpgpu-sim_UVM_user_prefetch/benchmarks/Managed/stencil/main "
Parsing file _cuobjdump_complete_output_W6azLT
######### cuobjdump parser ########
## Adding new section ELF
Adding arch: sm_20
Adding identifier: default
## Adding new section ELF
Adding arch: sm_20
Adding identifier: default
## Adding new section PTX
Adding ptx filename: _cuobjdump_1.ptx
Adding arch: sm_20
Adding identifier: default
## Adding new section ELF
Adding arch: sm_20
Adding identifier: default
## Adding new section PTX
Adding ptx filename: _cuobjdump_2.ptx
Adding arch: sm_20
Adding identifier: default
Done parsing!!!
GPGPU-Sim PTX: __cudaRegisterFatBinary, fat_cubin_handle = 2, filename=default
GPGPU-Sim PTX: __cudaRegisterFunction _Z24block2D_hybrid_coarsen_xffPfS_iii : hostFun 0x0x401680, fat_cubin_handle = 2
GPGPU-Sim PTX: allocating shared region for "sh_A0" from 0x0 to 0x0 (shared memory space)
GPGPU-Sim PTX: instruction assembly for function '_Z24block2D_hybrid_coarsen_xffPfS_iii'...   done.
GPGPU-Sim PTX: finding reconvergence points for '_Z24block2D_hybrid_coarsen_xffPfS_iii'...
GPGPU-Sim PTX: Finding dominators for '_Z24block2D_hybrid_coarsen_xffPfS_iii'...
GPGPU-Sim PTX: Finding immediate dominators for '_Z24block2D_hybrid_coarsen_xffPfS_iii'...
GPGPU-Sim PTX: Finding postdominators for '_Z24block2D_hybrid_coarsen_xffPfS_iii'...
GPGPU-Sim PTX: Finding immediate postdominators for '_Z24block2D_hybrid_coarsen_xffPfS_iii'...
GPGPU-Sim PTX: pre-decoding instructions for '_Z24block2D_hybrid_coarsen_xffPfS_iii'...
GPGPU-Sim PTX: reconvergence points for _Z24block2D_hybrid_coarsen_xffPfS_iii...
GPGPU-Sim PTX:  1 (potential) branch divergence @  PC=0x170 (_2.ptx:82) @!%p13 bra BB0_2;
GPGPU-Sim PTX:    immediate post dominator      @  PC=0x200 (_2.ptx:104) mov.f32 %f64, %f69;
GPGPU-Sim PTX:  2 (potential) branch divergence @  PC=0x178 (_2.ptx:83) bra.uni BB0_1;
GPGPU-Sim PTX:    immediate post dominator      @  PC=0x180 (_2.ptx:86) mad.lo.s32 %r33, %r3, %r6, %r1;
GPGPU-Sim PTX:  3 (potential) branch divergence @  PC=0x228 (_2.ptx:109) @!%p16 bra BB0_4;
GPGPU-Sim PTX:    immediate post dominator      @  PC=0x2b0 (_2.ptx:130) mov.f32 %f67, %f68;
GPGPU-Sim PTX:  4 (potential) branch divergence @  PC=0x230 (_2.ptx:110) bra.uni BB0_3;
GPGPU-Sim PTX:    immediate post dominator      @  PC=0x238 (_2.ptx:113) mad.lo.s32 %r58, %r3, %r6, %r2;
GPGPU-Sim PTX:  5 (potential) branch divergence @  PC=0x2d0 (_2.ptx:134) @%p17 bra BB0_33;
GPGPU-Sim PTX:    immediate post dominator      @  PC=0x868 (_2.ptx:370) ret;
GPGPU-Sim PTX:  6 (potential) branch divergence @  PC=0x300 (_2.ptx:143) @!%p13 bra BB0_8;
GPGPU-Sim PTX:    immediate post dominator      @  PC=0x348 (_2.ptx:156) @!%p5 bra BB0_19;
GPGPU-Sim PTX:  7 (potential) branch divergence @  PC=0x308 (_2.ptx:144) bra.uni BB0_7;
GPGPU-Sim PTX:    immediate post dominator      @  PC=0x310 (_2.ptx:147) add.s32 %r75, %r273, 1;
GPGPU-Sim PTX:  8 (potential) branch divergence @  PC=0x348 (_2.ptx:156) @!%p5 bra BB0_19;
GPGPU-Sim PTX:    immediate post dominator      @  PC=0x590 (_2.ptx:251) @!%p16 bra BB0_21;
GPGPU-Sim PTX:  9 (potential) branch divergence @  PC=0x350 (_2.ptx:157) bra.uni BB0_9;
GPGPU-Sim PTX:    immediate post dominator      @  PC=0x358 (_2.ptx:160) add.s32 %r89, %r13, -1;
GPGPU-Sim PTX: 10 (potential) branch divergence @  PC=0x368 (_2.ptx:162) @%p21 bra BB0_11;
GPGPU-Sim PTX:    immediate post dominator      @  PC=0x3e8 (_2.ptx:184) setp.eq.s32%p22, %r15, 0;
GPGPU-Sim PTX: 11 (potential) branch divergence @  PC=0x370 (_2.ptx:163) bra.uni BB0_10;
GPGPU-Sim PTX:    immediate post dominator      @  PC=0x3b8 (_2.ptx:176) shl.b32 %r92, %r11, 1;
GPGPU-Sim PTX: 12 (potential) branch divergence @  PC=0x3b0 (_2.ptx:173) bra.uni BB0_12;
GPGPU-Sim PTX:    immediate post dominator      @  PC=0x3e8 (_2.ptx:184) setp.eq.s32%p22, %r15, 0;
GPGPU-Sim PTX: 13 (potential) branch divergence @  PC=0x3f0 (_2.ptx:185) @%p22 bra BB0_14;
GPGPU-Sim PTX:    immediate post dominator      @  PC=0x470 (_2.ptx:207) setp.eq.s32%p23, %r12, 0;
GPGPU-Sim PTX: 14 (potential) branch divergence @  PC=0x3f8 (_2.ptx:186) bra.uni BB0_13;
GPGPU-Sim PTX:    immediate post dominator      @  PC=0x440 (_2.ptx:199) shl.b32 %r111, %r11, 1;
GPGPU-Sim PTX: 15 (potential) branch divergence @  PC=0x438 (_2.ptx:196) bra.uni BB0_15;
GPGPU-Sim PTX:    immediate post dominator      @  PC=0x470 (_2.ptx:207) setp.eq.s32%p23, %r12, 0;
GPGPU-Sim PTX: 16 (potential) branch divergence @  PC=0x478 (_2.ptx:208) @%p23 bra BB0_17;
GPGPU-Sim PTX:    immediate post dominator      @  PC=0x4f0 (_2.ptx:229) mad.lo.s32 %r149, %r273, %r7, %r3;
GPGPU-Sim PTX: 17 (potential) branch divergence @  PC=0x480 (_2.ptx:209) bra.uni BB0_16;
GPGPU-Sim PTX:    immediate post dominator      @  PC=0x4c8 (_2.ptx:222) shl.b32 %r129, %r11, 1;
GPGPU-Sim PTX: 18 (potential) branch divergence @  PC=0x4c0 (_2.ptx:219) bra.uni BB0_18;
GPGPU-Sim PTX:    immediate post dominator      @  PC=0x4f0 (_2.ptx:229) mad.lo.s32 %r149, %r273, %r7, %r3;
GPGPU-Sim PTX: 19 (potential) branch divergence @  PC=0x590 (_2.ptx:251) @!%p16 bra BB0_21;
GPGPU-Sim PTX:    immediate post dominator      @  PC=0x5d8 (_2.ptx:264) @!%p4 bra BB0_32;
GPGPU-Sim PTX: 20 (potential) branch divergence @  PC=0x598 (_2.ptx:252) bra.uni BB0_20;
GPGPU-Sim PTX:    immediate post dominator      @  PC=0x5a0 (_2.ptx:255) add.s32 %r168, %r273, 1;
GPGPU-Sim PTX: 21 (potential) branch divergence @  PC=0x5d8 (_2.ptx:264) @!%p4 bra BB0_32;
GPGPU-Sim PTX:    immediate post dominator      @  PC=0x820 (_2.ptx:359) bar.sync 0;
GPGPU-Sim PTX: 22 (potential) branch divergence @  PC=0x5e0 (_2.ptx:265) bra.uni BB0_22;
GPGPU-Sim PTX:    immediate post dominator      @  PC=0x5e8 (_2.ptx:268) add.s32 %r183, %r13, -1;
GPGPU-Sim PTX: 23 (potential) branch divergence @  PC=0x5f8 (_2.ptx:270) @%p27 bra BB0_24;
GPGPU-Sim PTX:    immediate post dominator      @  PC=0x678 (_2.ptx:292) setp.eq.s32%p28, %r15, 0;
GPGPU-Sim PTX: 24 (potential) branch divergence @  PC=0x600 (_2.ptx:271) bra.uni BB0_23;
GPGPU-Sim PTX:    immediate post dominator      @  PC=0x648 (_2.ptx:284) shl.b32 %r186, %r11, 1;
GPGPU-Sim PTX: 25 (potential) branch divergence @  PC=0x640 (_2.ptx:281) bra.uni BB0_25;
GPGPU-Sim PTX:    immediate post dominator      @  PC=0x678 (_2.ptx:292) setp.eq.s32%p28, %r15, 0;
GPGPU-Sim PTX: 26 (potential) branch divergence @  PC=0x680 (_2.ptx:293) @%p28 bra BB0_27;
GPGPU-Sim PTX:    immediate post dominator      @  PC=0x700 (_2.ptx:315) shl.b32 %r228, %r11, 1;
GPGPU-Sim PTX: 27 (potential) branch divergence @  PC=0x688 (_2.ptx:294) bra.uni BB0_26;
GPGPU-Sim PTX:    immediate post dominator      @  PC=0x6d0 (_2.ptx:307) shl.b32 %r207, %r11, 1;
GPGPU-Sim PTX: 28 (potential) branch divergence @  PC=0x6c8 (_2.ptx:304) bra.uni BB0_28;
GPGPU-Sim PTX:    immediate post dominator      @  PC=0x700 (_2.ptx:315) shl.b32 %r228, %r11, 1;
GPGPU-Sim PTX: 29 (potential) branch divergence @  PC=0x718 (_2.ptx:318) @%p29 bra BB0_30;
GPGPU-Sim PTX:    immediate post dominator      @  PC=0x788 (_2.ptx:338) mad.lo.s32 %r253, %r273, %r7, %r3;
GPGPU-Sim PTX: 30 (potential) branch divergence @  PC=0x720 (_2.ptx:319) bra.uni BB0_29;
GPGPU-Sim PTX:    immediate post dominator      @  PC=0x768 (_2.ptx:332) mad.lo.s32 %r235, %r228, %r15, %r19;
GPGPU-Sim PTX: 31 (potential) branch divergence @  PC=0x760 (_2.ptx:329) bra.uni BB0_31;
GPGPU-Sim PTX:    immediate post dominator      @  PC=0x788 (_2.ptx:338) mad.lo.s32 %r253, %r273, %r7, %r3;
GPGPU-Sim PTX: 32 (potential) branch divergence @  PC=0x860 (_2.ptx:367) @%p30 bra BB0_6;
GPGPU-Sim PTX:    immediate post dominator      @  PC=0x868 (_2.ptx:370) ret;
GPGPU-Sim PTX: ... end of reconvergence points for _Z24block2D_hybrid_coarsen_xffPfS_iii
GPGPU-Sim PTX: ... done pre-decoding instructions for '_Z24block2D_hybrid_coarsen_xffPfS_iii'.
GPGPU-Sim PTX: finished parsing EMBEDDED .ptx file _2.ptx
Adding _cuobjdump_1.ptx with cubin handle 2
GPGPU-Sim PTX: extracting embedded .ptx to temporary file "_ptx_W86k5Q"
Running: cat _ptx_W86k5Q | sed 's/.version 1.5/.version 1.4/' | sed 's/, texmode_independent//' | sed 's/\(\.extern \.const\[1\] .b8 \w\+\)\[\]/\1\[1\]/' | sed 's/const\[.\]/const\[0\]/g' > _ptx2_hXiapO
GPGPU-Sim PTX: generating ptxinfo using "$CUDA_INSTALL_PATH/bin/ptxas --gpu-name=sm_20 -v _ptx2_hXiapO --output-file  /dev/null 2> _ptx_W86k5Qinfo"
GPGPU-Sim PTX: Kernel '_Z24block2D_hybrid_coarsen_xffPfS_iii' : regs=20, lmem=0, smem=0, cmem=68
GPGPU-Sim PTX: removing ptxinfo using "rm -f _ptx_W86k5Q _ptx2_hXiapO _ptx_W86k5Qinfo"
GPGPU-Sim PTX: loading globals with explicit initializers... 
GPGPU-Sim PTX: finished loading globals (0 bytes total).
GPGPU-Sim PTX: loading constants with explicit initializers...  done.
CUDA accelerated 7 points stencil codes****
Original version by Li-Wen Chang <lchang20@illinois.edu> and I-Jui Sung<sung10@illinois.edu>
This version maintained by Chris Rodrigues  ***********
GPGPU-Sim PTX: cudaStreamCreate
GPGPU-Sim PTX: cudaStreamCreate
GPGPU-Sim PTX: cudaStreamCreate

GPGPU-Sim PTX: cudaLaunch for 0x0x401680 (mode=performance simulation) on stream 3
GPGPU-Sim PTX: pushing kernel '_Z24block2D_hybrid_coarsen_xffPfS_iii' to stream 3, gridDim= (2,32,1) blockDim = (32,4,1) 
GPGPU-Sim uArch: Shader 1 bind to kernel 1 '_Z24block2D_hybrid_coarsen_xffPfS_iii'
GPGPU-Sim uArch: CTA/core = 16, limited by: threads
GPGPU-Sim uArch: Shader 2 bind to kernel 1 '_Z24block2D_hybrid_coarsen_xffPfS_iii'
GPGPU-Sim uArch: Shader 3 bind to kernel 1 '_Z24block2D_hybrid_coarsen_xffPfS_iii'
GPGPU-Sim uArch: Shader 4 bind to kernel 1 '_Z24block2D_hybrid_coarsen_xffPfS_iii'
GPGPU-Sim uArch: Shader 5 bind to kernel 1 '_Z24block2D_hybrid_coarsen_xffPfS_iii'
GPGPU-Sim uArch: Shader 6 bind to kernel 1 '_Z24block2D_hybrid_coarsen_xffPfS_iii'
GPGPU-Sim uArch: Shader 7 bind to kernel 1 '_Z24block2D_hybrid_coarsen_xffPfS_iii'
GPGPU-Sim uArch: Shader 8 bind to kernel 1 '_Z24block2D_hybrid_coarsen_xffPfS_iii'
GPGPU-Sim uArch: Shader 9 bind to kernel 1 '_Z24block2D_hybrid_coarsen_xffPfS_iii'
GPGPU-Sim uArch: Shader 10 bind to kernel 1 '_Z24block2D_hybrid_coarsen_xffPfS_iii'
GPGPU-Sim uArch: Shader 11 bind to kernel 1 '_Z24block2D_hybrid_coarsen_xffPfS_iii'
GPGPU-Sim uArch: Shader 12 bind to kernel 1 '_Z24block2D_hybrid_coarsen_xffPfS_iii'
GPGPU-Sim uArch: Shader 13 bind to kernel 1 '_Z24block2D_hybrid_coarsen_xffPfS_iii'
GPGPU-Sim uArch: Shader 14 bind to kernel 1 '_Z24block2D_hybrid_coarsen_xffPfS_iii'
GPGPU-Sim uArch: Shader 15 bind to kernel 1 '_Z24block2D_hybrid_coarsen_xffPfS_iii'
GPGPU-Sim uArch: Shader 16 bind to kernel 1 '_Z24block2D_hybrid_coarsen_xffPfS_iii'
GPGPU-Sim uArch: Shader 17 bind to kernel 1 '_Z24block2D_hybrid_coarsen_xffPfS_iii'
GPGPU-Sim uArch: Shader 18 bind to kernel 1 '_Z24block2D_hybrid_coarsen_xffPfS_iii'
GPGPU-Sim uArch: Shader 19 bind to kernel 1 '_Z24block2D_hybrid_coarsen_xffPfS_iii'
GPGPU-Sim uArch: Shader 20 bind to kernel 1 '_Z24block2D_hybrid_coarsen_xffPfS_iii'
GPGPU-Sim uArch: Shader 21 bind to kernel 1 '_Z24block2D_hybrid_coarsen_xffPfS_iii'
GPGPU-Sim uArch: Shader 22 bind to kernel 1 '_Z24block2D_hybrid_coarsen_xffPfS_iii'
GPGPU-Sim uArch: Shader 23 bind to kernel 1 '_Z24block2D_hybrid_coarsen_xffPfS_iii'
GPGPU-Sim uArch: Shader 24 bind to kernel 1 '_Z24block2D_hybrid_coarsen_xffPfS_iii'
GPGPU-Sim uArch: Shader 25 bind to kernel 1 '_Z24block2D_hybrid_coarsen_xffPfS_iii'
GPGPU-Sim uArch: Shader 26 bind to kernel 1 '_Z24block2D_hybrid_coarsen_xffPfS_iii'
GPGPU-Sim uArch: Shader 27 bind to kernel 1 '_Z24block2D_hybrid_coarsen_xffPfS_iii'
GPGPU-Sim uArch: Shader 0 bind to kernel 1 '_Z24block2D_hybrid_coarsen_xffPfS_iii'
Destroy streams for kernel 1: size 0
kernel_name = _Z24block2D_hybrid_coarsen_xffPfS_iii 
kernel_launch_uid = 1 
gpu_sim_cycle = 238835
gpu_sim_insn = 28848876
gpu_ipc =     120.7900
gpu_tot_sim_cycle = 497476
gpu_tot_sim_insn = 28848876
gpu_tot_ipc =      57.9905
gpu_tot_issued_cta = 64
max_total_param_size = 0
gpu_stall_dramfull = 141527
gpu_stall_icnt2sh    = 3485
partiton_reqs_in_parallel = 5112843
partiton_reqs_in_parallel_total    = 0
partiton_level_parallism =      21.4074
partiton_level_parallism_total  =      10.2776
partiton_reqs_in_parallel_util = 5112843
partiton_reqs_in_parallel_util_total    = 0
gpu_sim_cycle_parition_util = 238147
gpu_tot_sim_cycle_parition_util    = 0
partiton_level_parallism_util =      21.4693
partiton_level_parallism_util_total  =      21.4693
partiton_replys_in_parallel = 47008
partiton_replys_in_parallel_total    = 0
L2_BW  =      18.6556 GB/Sec
L2_BW_total  =       8.9564 GB/Sec
gpu_total_sim_rate=60353

========= Core cache stats =========
L1I_cache:
	L1I_total_cache_accesses = 579228
	L1I_total_cache_misses = 4232
	L1I_total_cache_miss_rate = 0.0073
	L1I_total_cache_pending_hits = 0
	L1I_total_cache_reservation_fails = 0
L1D_cache:
	L1D_cache_core[0]: Access = 0, Miss = 0, Miss_rate = -nan, Pending_hits = 0, Reservation_fails = 0
	L1D_cache_core[1]: Access = 0, Miss = 0, Miss_rate = -nan, Pending_hits = 0, Reservation_fails = 0
	L1D_cache_core[2]: Access = 0, Miss = 0, Miss_rate = -nan, Pending_hits = 0, Reservation_fails = 0
	L1D_cache_core[3]: Access = 0, Miss = 0, Miss_rate = -nan, Pending_hits = 0, Reservation_fails = 0
	L1D_cache_core[4]: Access = 0, Miss = 0, Miss_rate = -nan, Pending_hits = 0, Reservation_fails = 0
	L1D_cache_core[5]: Access = 0, Miss = 0, Miss_rate = -nan, Pending_hits = 0, Reservation_fails = 0
	L1D_cache_core[6]: Access = 0, Miss = 0, Miss_rate = -nan, Pending_hits = 0, Reservation_fails = 0
	L1D_cache_core[7]: Access = 0, Miss = 0, Miss_rate = -nan, Pending_hits = 0, Reservation_fails = 0
	L1D_cache_core[8]: Access = 0, Miss = 0, Miss_rate = -nan, Pending_hits = 0, Reservation_fails = 0
	L1D_cache_core[9]: Access = 0, Miss = 0, Miss_rate = -nan, Pending_hits = 0, Reservation_fails = 0
	L1D_cache_core[10]: Access = 0, Miss = 0, Miss_rate = -nan, Pending_hits = 0, Reservation_fails = 0
	L1D_cache_core[11]: Access = 0, Miss = 0, Miss_rate = -nan, Pending_hits = 0, Reservation_fails = 0
	L1D_cache_core[12]: Access = 0, Miss = 0, Miss_rate = -nan, Pending_hits = 0, Reservation_fails = 0
	L1D_cache_core[13]: Access = 0, Miss = 0, Miss_rate = -nan, Pending_hits = 0, Reservation_fails = 0
	L1D_cache_core[14]: Access = 0, Miss = 0, Miss_rate = -nan, Pending_hits = 0, Reservation_fails = 0
	L1D_cache_core[15]: Access = 0, Miss = 0, Miss_rate = -nan, Pending_hits = 0, Reservation_fails = 0
	L1D_cache_core[16]: Access = 0, Miss = 0, Miss_rate = -nan, Pending_hits = 0, Reservation_fails = 0
	L1D_cache_core[17]: Access = 0, Miss = 0, Miss_rate = -nan, Pending_hits = 0, Reservation_fails = 0
	L1D_cache_core[18]: Access = 0, Miss = 0, Miss_rate = -nan, Pending_hits = 0, Reservation_fails = 0
	L1D_cache_core[19]: Access = 0, Miss = 0, Miss_rate = -nan, Pending_hits = 0, Reservation_fails = 0
	L1D_cache_core[20]: Access = 0, Miss = 0, Miss_rate = -nan, Pending_hits = 0, Reservation_fails = 0
	L1D_cache_core[21]: Access = 0, Miss = 0, Miss_rate = -nan, Pending_hits = 0, Reservation_fails = 0
	L1D_cache_core[22]: Access = 0, Miss = 0, Miss_rate = -nan, Pending_hits = 0, Reservation_fails = 0
	L1D_cache_core[23]: Access = 0, Miss = 0, Miss_rate = -nan, Pending_hits = 0, Reservation_fails = 0
	L1D_cache_core[24]: Access = 0, Miss = 0, Miss_rate = -nan, Pending_hits = 0, Reservation_fails = 0
	L1D_cache_core[25]: Access = 0, Miss = 0, Miss_rate = -nan, Pending_hits = 0, Reservation_fails = 0
	L1D_cache_core[26]: Access = 0, Miss = 0, Miss_rate = -nan, Pending_hits = 0, Reservation_fails = 0
	L1D_cache_core[27]: Access = 0, Miss = 0, Miss_rate = -nan, Pending_hits = 0, Reservation_fails = 0
	L1D_total_cache_accesses = 0
	L1D_total_cache_misses = 0
	L1D_total_cache_pending_hits = 0
	L1D_total_cache_reservation_fails = 0
	L1D_cache_data_port_util = 0.000
	L1D_cache_fill_port_util = 0.000
L1C_cache:
	L1C_total_cache_accesses = 1792
	L1C_total_cache_misses = 1632
	L1C_total_cache_miss_rate = 0.9107
	L1C_total_cache_pending_hits = 0
	L1C_total_cache_reservation_fails = 1444
L1T_cache:
	L1T_total_cache_accesses = 0
	L1T_total_cache_misses = 0
	L1T_total_cache_pending_hits = 0
	L1T_total_cache_reservation_fails = 0

Total_core_cache_stats:
	Total_core_cache_stats_breakdown[GLOBAL_ACC_R][HIT] = 0
	Total_core_cache_stats_breakdown[GLOBAL_ACC_R][HIT_RESERVED] = 0
	Total_core_cache_stats_breakdown[GLOBAL_ACC_R][MISS] = 0
	Total_core_cache_stats_breakdown[GLOBAL_ACC_R][RESERVATION_FAIL] = 0
	Total_core_cache_stats_breakdown[LOCAL_ACC_R][HIT] = 0
	Total_core_cache_stats_breakdown[LOCAL_ACC_R][HIT_RESERVED] = 0
	Total_core_cache_stats_breakdown[LOCAL_ACC_R][MISS] = 0
	Total_core_cache_stats_breakdown[LOCAL_ACC_R][RESERVATION_FAIL] = 0
	Total_core_cache_stats_breakdown[CONST_ACC_R][HIT] = 160
	Total_core_cache_stats_breakdown[CONST_ACC_R][HIT_RESERVED] = 0
	Total_core_cache_stats_breakdown[CONST_ACC_R][MISS] = 1632
	Total_core_cache_stats_breakdown[CONST_ACC_R][RESERVATION_FAIL] = 1444
	Total_core_cache_stats_breakdown[TEXTURE_ACC_R][HIT] = 0
	Total_core_cache_stats_breakdown[TEXTURE_ACC_R][HIT_RESERVED] = 0
	Total_core_cache_stats_breakdown[TEXTURE_ACC_R][MISS] = 0
	Total_core_cache_stats_breakdown[TEXTURE_ACC_R][RESERVATION_FAIL] = 0
	Total_core_cache_stats_breakdown[GLOBAL_ACC_W][HIT] = 0
	Total_core_cache_stats_breakdown[GLOBAL_ACC_W][HIT_RESERVED] = 0
	Total_core_cache_stats_breakdown[GLOBAL_ACC_W][MISS] = 0
	Total_core_cache_stats_breakdown[GLOBAL_ACC_W][RESERVATION_FAIL] = 0
	Total_core_cache_stats_breakdown[LOCAL_ACC_W][HIT] = 0
	Total_core_cache_stats_breakdown[LOCAL_ACC_W][HIT_RESERVED] = 0
	Total_core_cache_stats_breakdown[LOCAL_ACC_W][MISS] = 0
	Total_core_cache_stats_breakdown[LOCAL_ACC_W][RESERVATION_FAIL] = 0
	Total_core_cache_stats_breakdown[L1_WRBK_ACC][HIT] = 0
	Total_core_cache_stats_breakdown[L1_WRBK_ACC][HIT_RESERVED] = 0
	Total_core_cache_stats_breakdown[L1_WRBK_ACC][MISS] = 0
	Total_core_cache_stats_breakdown[L1_WRBK_ACC][RESERVATION_FAIL] = 0
	Total_core_cache_stats_breakdown[L2_WRBK_ACC][HIT] = 0
	Total_core_cache_stats_breakdown[L2_WRBK_ACC][HIT_RESERVED] = 0
	Total_core_cache_stats_breakdown[L2_WRBK_ACC][MISS] = 0
	Total_core_cache_stats_breakdown[L2_WRBK_ACC][RESERVATION_FAIL] = 0
	Total_core_cache_stats_breakdown[INST_ACC_R][HIT] = 574996
	Total_core_cache_stats_breakdown[INST_ACC_R][HIT_RESERVED] = 0
	Total_core_cache_stats_breakdown[INST_ACC_R][MISS] = 4232
	Total_core_cache_stats_breakdown[INST_ACC_R][RESERVATION_FAIL] = 0
	Total_core_cache_stats_breakdown[L1_WR_ALLOC_R][HIT] = 0
	Total_core_cache_stats_breakdown[L1_WR_ALLOC_R][HIT_RESERVED] = 0
	Total_core_cache_stats_breakdown[L1_WR_ALLOC_R][MISS] = 0
	Total_core_cache_stats_breakdown[L1_WR_ALLOC_R][RESERVATION_FAIL] = 0
	Total_core_cache_stats_breakdown[L2_WR_ALLOC_R][HIT] = 0
	Total_core_cache_stats_breakdown[L2_WR_ALLOC_R][HIT_RESERVED] = 0
	Total_core_cache_stats_breakdown[L2_WR_ALLOC_R][MISS] = 0
	Total_core_cache_stats_breakdown[L2_WR_ALLOC_R][RESERVATION_FAIL] = 0
	Total_core_cache_stats_breakdown[CONST_ACC_R][TOTAL_ACCESS] = 1792
	Total_core_cache_stats_breakdown[INST_ACC_R][TOTAL_ACCESS] = 579228
Shader 0 warp_id issue ditsribution:
warp_id:
0, 1, 2, 3, 4, 5, 6, 7, 
distro:
4828, 4644, 4648, 4816, 4828, 4652, 4648, 4808, 
gpgpu_n_tot_thrd_icount = 33319424
gpgpu_n_tot_w_icount = 1041232
gpgpu_n_stall_shd_mem = 291732
gpgpu_n_mem_read_local = 0
gpgpu_n_mem_write_local = 0
gpgpu_n_mem_read_global = 31384
gpgpu_n_mem_write_global = 15120
gpgpu_n_mem_texture = 0
gpgpu_n_mem_const = 28
gpgpu_n_load_insn  = 766208
gpgpu_n_store_insn = 476280
gpgpu_n_shmem_insn = 3155288
gpgpu_n_tex_insn = 0
gpgpu_n_const_mem_insn = 0
gpgpu_n_param_mem_insn = 57344
gpgpu_n_shmem_bkconflict = 0
gpgpu_n_cache_bkconflict = 0
gpgpu_n_intrawarp_mshr_merge = 0
gpgpu_n_cmem_portconflict = 1444
gpgpu_stall_shd_mem[c_mem][bk_conf] = 1444
gpgpu_stall_shd_mem[c_mem][mshr_rc] = 0
gpgpu_stall_shd_mem[c_mem][icnt_rc] = 0
gpgpu_stall_shd_mem[c_mem][data_port_stall] = 0
gpgpu_stall_shd_mem[t_mem][mshr_rc] = 0
gpgpu_stall_shd_mem[t_mem][icnt_rc] = 0
gpgpu_stall_shd_mem[t_mem][data_port_stall] = 0
gpgpu_stall_shd_mem[s_mem][bk_conf] = 0
gpgpu_stall_shd_mem[gl_mem][bk_conf] = 0
gpgpu_stall_shd_mem[gl_mem][coal_stall] = 0
gpgpu_stall_shd_mem[gl_mem][data_port_stall] = 0
gpgpu_stall_shd_mem[g_mem_ld][mshr_rc] = 0
gpgpu_stall_shd_mem[g_mem_ld][icnt_rc] = 290288
gpgpu_stall_shd_mem[g_mem_ld][wb_icnt_rc] = 0
gpgpu_stall_shd_mem[g_mem_ld][wb_rsrv_fail] = 0
gpgpu_stall_shd_mem[g_mem_st][mshr_rc] = 0
gpgpu_stall_shd_mem[g_mem_st][icnt_rc] = 0
gpgpu_stall_shd_mem[g_mem_st][wb_icnt_rc] = 0
gpgpu_stall_shd_mem[g_mem_st][wb_rsrv_fail] = 0
gpgpu_stall_shd_mem[l_mem_ld][mshr_rc] = 0
gpgpu_stall_shd_mem[l_mem_ld][icnt_rc] = 0
gpgpu_stall_shd_mem[l_mem_ld][wb_icnt_rc] = 0
gpgpu_stall_shd_mem[l_mem_ld][wb_rsrv_fail] = 0
gpgpu_stall_shd_mem[l_mem_st][mshr_rc] = 0
gpgpu_stall_shd_mem[l_mem_st][icnt_rc] = 0
gpgpu_stall_shd_mem[l_mem_ld][wb_icnt_rc] = 0
gpgpu_stall_shd_mem[l_mem_ld][wb_rsrv_fail] = 0
gpu_reg_bank_conflict_stalls = 0
Warp Occupancy Distribution:
Stall:33975	W0_Idle:11145898	W0_Scoreboard:1259749	W1:60480	W2:0	W3:0	W4:0	W5:0	W6:0	W7:0	W8:0	W9:0	W10:0	W11:0	W12:0	W13:0	W14:0	W15:0	W16:0	W17:0	W18:0	W19:0	W20:0	W21:0	W22:0	W23:0	W24:0	W25:0	W26:0	W27:0	W28:0	W29:0	W30:0	W31:408180	W32:572572
traffic_breakdown_coretomem[CONST_ACC_R] = 224 {8:28,}
traffic_breakdown_coretomem[GLOBAL_ACC_R] = 251072 {8:31384,}
traffic_breakdown_coretomem[GLOBAL_ACC_W] = 2056320 {136:15120,}
traffic_breakdown_coretomem[INST_ACC_R] = 3808 {8:476,}
traffic_breakdown_memtocore[CONST_ACC_R] = 2016 {72:28,}
traffic_breakdown_memtocore[GLOBAL_ACC_R] = 3542464 {40:7560,136:23824,}
traffic_breakdown_memtocore[GLOBAL_ACC_W] = 120960 {8:15120,}
traffic_breakdown_memtocore[INST_ACC_R] = 64736 {136:476,}
maxmrqlatency = 2060 
maxdqlatency = 0 
maxmflatency = 222309 
averagemflatency = 67157 
max_icnt2mem_latency = 221122 
max_icnt2sh_latency = 497475 
mrq_lat_table:16485 	598 	480 	821 	1115 	2040 	3918 	6563 	9568 	4462 	591 	1 	0 	0 	0 	0 	0 	0 	0 	0 	0 	0 	0 	0 	0 	0 	0 	0 	0 	0 	0 	0 	
dq_lat_table:0 	0 	0 	0 	0 	0 	0 	0 	0 	0 	0 	0 	0 	0 	0 	0 	0 	0 	0 	0 	0 	0 	0 	0 	0 	0 	0 	0 	0 	0 	0 	0 	
mf_lat_table:0 	0 	0 	0 	0 	0 	0 	22049 	9363 	0 	0 	0 	0 	0 	0 	0 	0 	15120 	0 	0 	0 	0 	0 	0 	0 	0 	0 	0 	0 	0 	0 	0 	
icnt2mem_lat_table:0 	0 	21760 	10 	16 	0 	10102 	0 	0 	0 	0 	0 	0 	0 	0 	0 	0 	15120 	0 	0 	0 	0 	0 	0 	
icnt2sh_lat_table:0 	0 	25495 	5693 	224 	0 	0 	0 	0 	0 	0 	0 	0 	0 	0 	0 	0 	0 	15120 	0 	0 	0 	0 	0 	
mf_lat_pw_table:0 	0 	0 	0 	0 	0 	0 	82 	6 	0 	0 	0 	0 	0 	0 	0 	0 	26 	0 	0 	0 	0 	0 	0 	0 	0 	0 	0 	0 	0 	0 	0 	
maximum concurrent accesses to same row:
dram[0]:        32        32        32        32        30        30        30        30        32        32        32        32        32        32        32        32 
dram[1]:        32        32        32        32        32        32        30        30        32        32        32        32        32        32        32        32 
dram[2]:        32        32        32        32        32        32        32        32        32        32        32        32        32        32        32        32 
dram[3]:        32        32        32        32        32        32        30        30        32        32        30        30        32        32        32        32 
dram[4]:        32        32        32        32        32        32        32        32        32        32        32        28        32        32        32        32 
dram[5]:        32        32        32        32        32        32        32        32        32        32        30        30        32        32        32        32 
dram[6]:        30        30        32        32        32        32        32        32        32        32        30        30        32        32        32        32 
dram[7]:        32        32        32        32        32        32        32        32        32        32        32        32        32        32        32        32 
dram[8]:        30        30        32        32        30        30        32        32        32        30        32        32        32        32        32        32 
dram[9]:        32        32        32        32        30        32        32        32        32        32        32        32        32        32        32        32 
dram[10]:        32        32        32        32        30        30        32        32        32        30        32        32        32        32        32        32 
maximum service time to same row:
dram[0]:    188455    187877    188033    187514    187665    187174    186606    186141    186272    185837    190680    190092    190130    189531    189487    188908 
dram[1]:    188439    188045    188044    187516    187581    187076    186634    186139    186317    185763    190684    190136    190144    189558    189422    188837 
dram[2]:    188390    187892    188016    187488    187639    187110    186587    186081    186206    185749    190739    190172    190123    189529    189477    188903 
dram[3]:    188483    187965    188050    187530    187502    186983    186676    186216    186259    185735    190670    190111    190162    189581    189471    188896 
dram[4]:    188365    187927    188023    187581    187667    187220    186608    186154    186226    185794    190725    190221    190125    189528    189482    188902 
dram[5]:    188421    187941    188099    187571    187553    187009    186628    186084    186269    185754    190673    190104    190163    189584    189463    188902 
dram[6]:    188324    187840    187948    187477    187181    186674    186616    186151    186221    185871    190722    190254    190143    189568    189428    188846 
dram[7]:    188463    187896    188031    187505    187594    187045    186623    186093    186320    185752    190674    190106    190161    189571    189471    188916 
dram[8]:    188371    187904    187951    187403    187224    186707    186690    186224    186258    185759    190734    190142    190149    189555    189427    188855 
dram[9]:    188441    187917    188031    187527    187650    187101    186669    186122    186332    185771    190678    190124    190160    189570    189502    188925 
dram[10]:    188342    187895    187977    187423    187187    186594    186748    186205    186300    185740    190650    190090    190147    189567    189429    188852 
average row accesses per activate:
dram[0]: 10.107142 10.071428  8.500000  9.714286 11.363636 12.500000 14.705882 13.888889 12.300000 12.300000  9.680000  9.680000 13.714286 13.714286  9.965517 10.321428 
dram[1]: 11.750000 10.071428 11.083333 11.083333 14.222222 14.222222 11.363636 11.363636 12.947369 11.714286  9.720000  9.720000 12.000000 13.090909 13.761905 13.714286 
dram[2]:  8.470589  9.600000 13.300000 14.000000 10.666667 10.666667 14.705882 13.888889 11.714286 12.300000 10.125000  9.000000 12.521739 14.400000 10.846154  9.724138 
dram[3]: 11.520000 10.666667 12.090909 13.300000 12.800000 11.636364 13.888889 12.500000 13.666667 13.666667  9.346154  8.678572 12.521739 11.520000 14.842105 14.842105 
dram[4]: 10.666667 10.666667 16.625000 14.777778 10.956522  9.692307 15.058824 13.473684 12.300000 11.714286 10.565217  9.720000 12.000000 13.090909 11.791667 12.304348 
dram[5]: 14.100000 12.260870 10.800000 12.857142 10.500000 10.500000 14.222222 12.800000 11.181818 11.714286 11.045455 11.045455 12.521739 12.521739 14.150000 12.863636 
dram[6]: 13.428572 12.260870 15.882353 15.882353 10.500000 10.500000 12.190476 12.190476 12.300000 13.666667 10.125000  9.720000 12.260870 13.428572 13.136364 13.136364 
dram[7]: 16.588236 16.588236 12.272727 11.739130 12.000000 10.080000 14.222222 14.222222 11.000000 11.523809 10.826087  9.222222 14.100000 14.100000 11.115385  9.965517 
dram[8]: 11.280000 12.260870 15.000000 15.000000  9.615385  8.928572 10.240000 10.666667 12.100000 11.000000 11.318182 10.826087 13.428572 14.100000 11.560000 11.115385 
dram[9]: 14.400000 13.714286 10.800000  9.310345 13.157895 14.705882 11.636364 11.636364 13.388889 12.050000 11.318182 11.318182 14.842105 14.842105 12.304348 11.791667 
dram[10]: 11.520000 12.000000 10.384615 11.739130 10.869565 10.000000  9.846154 11.130435 13.388889 10.954545  9.074074 10.652174 16.000000 16.000000 10.481482 11.320000 
average row locality = 46642/3944 = 11.826065
number of total memory accesses made:
dram[0]:         0         0         0         0         0         0         0         0         0         0         0         0         0         0         0         0 
dram[1]:         0         0         0         0         0         0         0         0         0         0         0         0         0         0         0         0 
dram[2]:         0         0         0         0         0         0         0         0         0         0         0         0         0         0         0         0 
dram[3]:         0         0         0         0         0         0         0         0         0         0         0         0         0         0         0         0 
dram[4]:         0         0         0         0         0         0         0         0         0         0         0         0         0         0         0         0 
dram[5]:         0         0         0         0         0         0         0         0         0         0         0         0         0         0         0         0 
dram[6]:         0         0         0         0         0         0         0         0         0         0         0         0         0         0         0         0 
dram[7]:         0         0         0         0         0         0         0         0         0         0         0         0         0         0         0         0 
dram[8]:         0         0         0         0         0         0         0         0         0         0         0         0         0         0         0         0 
dram[9]:         0         0         0         0         0         0         0         0         0         0         0         0         0         0         0         0 
dram[10]:         0         0         0         0         0         0         0         0         0         0         0         0         0         0         0         0 
total accesses: 0
min_bank_accesses = 0!
min_chip_accesses = 0!
number of total read accesses:
dram[0]:       190       189       184       184       173       173       173       173       166       166       162       162       192       192       193       193 
dram[1]:       189       189       181       181       176       176       173       173       166       166       163       163       192       192       193       192 
dram[2]:       192       192       181       181       176       176       173       173       166       166       163       163       192       192       189       189 
dram[3]:       192       192       181       181       176       176       173       173       166       166       163       163       192       192       189       189 
dram[4]:       192       192       181       181       174       174       176       176       166       166       163       163       192       192       190       190 
dram[5]:       189       189       183       183       174       174       176       176       166       166       163       163       192       192       190       190 
dram[6]:       189       189       183       183       174       174       176       176       166       166       163       163       189       189       193       193 
dram[7]:       189       189       183       183       174       174       176       176       164       164       166       166       189       189       193       193 
dram[8]:       189       189       183       183       173       173       176       176       164       164       166       166       189       189       193       193 
dram[9]:       192       192       183       183       173       173       176       176       163       163       166       166       189       189       190       190 
dram[10]:       192       192       183       183       173       173       176       176       163       163       164       164       192       192       190       190 
total reads: 31522
bank skew: 193/162 = 1.19
chip skew: 2868/2864 = 1.00
number of total write accesses:
dram[0]:        93        93        88        88        77        77        77        77        80        80        80        80        96        96        96        96 
dram[1]:        93        93        85        85        80        80        77        77        80        80        80        80        96        96        96        96 
dram[2]:        96        96        85        85        80        80        77        77        80        80        80        80        96        96        93        93 
dram[3]:        96        96        85        85        80        80        77        77        80        80        80        80        96        96        93        93 
dram[4]:        96        96        85        85        78        78        80        80        80        80        80        80        96        96        93        93 
dram[5]:        93        93        87        87        78        78        80        80        80        80        80        80        96        96        93        93 
dram[6]:        93        93        87        87        78        78        80        80        80        80        80        80        93        93        96        96 
dram[7]:        93        93        87        87        78        78        80        80        78        78        83        83        93        93        96        96 
dram[8]:        93        93        87        87        77        77        80        80        78        78        83        83        93        93        96        96 
dram[9]:        96        96        87        87        77        77        80        80        78        78        83        83        93        93        93        93 
dram[10]:        96        96        87        87        77        77        80        80        78        78        81        81        96        96        93        93 
total reads: 15120
bank skew: 96/77 = 1.25
chip skew: 1376/1374 = 1.00
average mf latency per bank:
dram[0]:      68632     68655     67691     67519     64787     64615     64482     64302     67918     67763     69018     68827     70040     69777     69548     69336
dram[1]:      68908     68718     66862     66679     65662     65491     64527     64357     67934     67754     68686     68507     70001     69761     69624     69641
dram[2]:      69582     69382     66923     66749     65725     65542     64452     64249     67934     67764     68759     68567     70003     69775     69005     68802
dram[3]:      69596     69399     66862     66664     65667     65482     64573     64382     67924     67713     68754     68530     70022     69760     69064     68849
dram[4]:      69606     69432     66922     66775     65087     64901     65398     65249     67917     67773     68773     68616     69959     69746     68749     68578
dram[5]:      68806     68611     67443     67259     65061     64862     65471     65284     67894     67717     68736     68525     70022     69764     68852     68644
dram[6]:      68840     68689     67466     67325     65035     64880     65398     65252     67932     67803     68766     68605     69216     69015     69558     69375
dram[7]:      68781     68589     67464     67272     65086     64899     65434     65264     67296     67110     69603     69394     69318     69066     69635     69405
dram[8]:      68879     68701     67447     67292     64704     64540     65398     65245     67326     67161     69636     69433     69218     69016     69562     69365
dram[9]:      69555     69343     67481     67261     64771     64570     65434     65233     67586     67376     69609     69383     69320     69059     68868     68652
dram[10]:      69641     69449     67423     67263     64708     64517     65430     65259     67602     67424     69013     68828     69990     69781     68878     68654
maximum mf latency per bank:
dram[0]:     220283    219870    219474    219242    219632    219293    218619    218270    218322    218139    221186    219649    222181    220743    221664    220327
dram[1]:     220173    219963    219747    219357    219496    219031    218779    218310    218331    217999    221199    219681    222155    220738    222174    220591
dram[2]:     220107    219825    219459    219075    219638    219293    218685    218210    218426    218080    221178    219725    222160    220704    221601    220402
dram[3]:     220445    220189    219589    219276    219511    219078    218950    218555    218339    217856    221313    219864    222243    220826    221538    219985
dram[4]:     220278    219889    219576    219251    219880    219378    218630    218657    218220    217975    221290    219862    222196    220816    221585    220263
dram[5]:     220247    219848    219650    219401    219566    218923    218933    218507    218281    217952    221309    219858    222150    220758    221776    219990
dram[6]:     220137    219947    219501    219320    219516    219123    218846    218369    218133    217970    221299    219905    222162    220900    221911    220581
dram[7]:     220246    219811    219623    219231    219653    219156    218883    218507    218189    217818    221344    219856    222222    220716    221746    220062
dram[8]:     220208    219954    219514    219241    219481    218999    218668    218302    218032    217801    221375    219900    222228    220767    221948    220450
dram[9]:     220341    219898    219673    219303    219461    219182    218743    218436    218328    217775    221335    219848    222187    220716    221805    220162
dram[10]:     220238    219843    219501    219210    219545    219031    218733    218295    218088    217867    221289    219905    222309    220897    222093    220445
Memory Partition 0: 
Cache L2_bank_000:
MSHR contents

Cache L2_bank_001:
MSHR contents

In Dram Latency Queue (total = 0): 
DRAM[0]: 16 bks, busW=4 BL=8 CL=12, tRRD=2 tCCD=6, tRCD=12 tRAS=28 tRP=12 tRC=40
n_cmd=443480 n_nop=425774 n_act=383 n_pre=367 n_req=4239 n_rd=11460 n_write=5496 bw_util=0.07647
n_activity=48065 dram_eff=0.7055
bk0: 760a 421607i bk1: 756a 421829i bk2: 736a 422387i bk3: 736a 421608i bk4: 692a 424138i bk5: 692a 424210i bk6: 692a 423996i bk7: 692a 423679i bk8: 664a 423408i bk9: 664a 422831i bk10: 648a 423719i bk11: 648a 424124i bk12: 768a 420938i bk13: 768a 420773i bk14: 772a 421409i bk15: 772a 421416i 
dram_util_bins: 0 0 0 0 0 0 0 0 0 0
dram_eff_bins: 0 0 0 0 0 0 0 0 0 0
mrqq: max=64 avg=3.42578
Memory Partition 1: 
Cache L2_bank_002:
MSHR contents

Cache L2_bank_003:
MSHR contents

In Dram Latency Queue (total = 0): 
DRAM[1]: 16 bks, busW=4 BL=8 CL=12, tRRD=2 tCCD=6, tRCD=12 tRAS=28 tRP=12 tRC=40
n_cmd=443480 n_nop=425824 n_act=358 n_pre=342 n_req=4239 n_rd=11460 n_write=5496 bw_util=0.07647
n_activity=47873 dram_eff=0.7084
bk0: 756a 421548i bk1: 756a 422238i bk2: 724a 423230i bk3: 724a 423032i bk4: 704a 424351i bk5: 704a 424042i bk6: 692a 424572i bk7: 692a 424562i bk8: 664a 423832i bk9: 664a 423613i bk10: 652a 424226i bk11: 652a 423931i bk12: 768a 421044i bk13: 768a 420981i bk14: 772a 421313i bk15: 768a 421575i 
dram_util_bins: 0 0 0 0 0 0 0 0 0 0
dram_eff_bins: 0 0 0 0 0 0 0 0 0 0
mrqq: max=64 avg=3.43198
Memory Partition 2: 
Cache L2_bank_004:
MSHR contents

Cache L2_bank_005:
MSHR contents

In Dram Latency Queue (total = 0): 
DRAM[2]: 16 bks, busW=4 BL=8 CL=12, tRRD=2 tCCD=6, tRCD=12 tRAS=28 tRP=12 tRC=40
n_cmd=443480 n_nop=425792 n_act=376 n_pre=360 n_req=4238 n_rd=11456 n_write=5496 bw_util=0.07645
n_activity=47995 dram_eff=0.7064
bk0: 768a 421138i bk1: 768a 421731i bk2: 724a 422905i bk3: 724a 422437i bk4: 704a 423596i bk5: 704a 423811i bk6: 692a 423754i bk7: 692a 425081i bk8: 664a 422729i bk9: 664a 423014i bk10: 652a 424449i bk11: 652a 424826i bk12: 768a 420774i bk13: 768a 420502i bk14: 756a 421534i bk15: 756a 421724i 
dram_util_bins: 0 0 0 0 0 0 0 0 0 0
dram_eff_bins: 0 0 0 0 0 0 0 0 0 0
mrqq: max=64 avg=3.43064
Memory Partition 3: 
Cache L2_bank_006:
MSHR contents

Cache L2_bank_007:
MSHR contents

In Dram Latency Queue (total = 0): 
DRAM[3]: 16 bks, busW=4 BL=8 CL=12, tRRD=2 tCCD=6, tRCD=12 tRAS=28 tRP=12 tRC=40
n_cmd=443480 n_nop=425844 n_act=350 n_pre=334 n_req=4238 n_rd=11456 n_write=5496 bw_util=0.07645
n_activity=47931 dram_eff=0.7074
bk0: 768a 421027i bk1: 768a 420825i bk2: 724a 422447i bk3: 724a 422572i bk4: 704a 423250i bk5: 704a 423156i bk6: 692a 423605i bk7: 692a 423611i bk8: 664a 422767i bk9: 664a 422978i bk10: 652a 423243i bk11: 652a 424043i bk12: 768a 420537i bk13: 768a 420289i bk14: 756a 421556i bk15: 756a 421758i 
dram_util_bins: 0 0 0 0 0 0 0 0 0 0
dram_eff_bins: 0 0 0 0 0 0 0 0 0 0
mrqq: max=64 avg=3.4245
Memory Partition 4: 
Cache L2_bank_008:
MSHR contents

Cache L2_bank_009:
MSHR contents
MSHR: tag=0xc03e7d80, atomic=0 1 entries : 0x7f0e8d9bf2e0 :  mf: uid=644081, sid04:w06, part=4, addr=0xc03e7d80, load , size=128, unknown  status = IN_PARTITION_DRAM (497475), 

In Dram Latency Queue (total = 0): 
DRAM[4]: 16 bks, busW=4 BL=8 CL=12, tRRD=2 tCCD=6, tRCD=12 tRAS=28 tRP=12 tRC=40
n_cmd=443480 n_nop=425811 n_act=355 n_pre=339 n_req=4244 n_rd=11471 n_write=5504 bw_util=0.07655
n_activity=48355 dram_eff=0.7021
bk0: 768a 421594i bk1: 767a 422210i bk2: 724a 423229i bk3: 724a 422965i bk4: 696a 423768i bk5: 696a 424624i bk6: 704a 423665i bk7: 704a 424043i bk8: 664a 424317i bk9: 664a 423453i bk10: 652a 424314i bk11: 652a 424786i bk12: 768a 421253i bk13: 768a 421865i bk14: 760a 422234i bk15: 760a 422378i 
dram_util_bins: 0 0 0 0 0 0 0 0 0 0
dram_eff_bins: 0 0 0 0 0 0 0 0 0 0
mrqq: max=64 avg=3.43858
Memory Partition 5: 
Cache L2_bank_010:
MSHR contents

Cache L2_bank_011:
MSHR contents

In Dram Latency Queue (total = 0): 
DRAM[5]: 16 bks, busW=4 BL=8 CL=12, tRRD=2 tCCD=6, tRCD=12 tRAS=28 tRP=12 tRC=40
n_cmd=443480 n_nop=425836 n_act=350 n_pre=334 n_req=4240 n_rd=11464 n_write=5496 bw_util=0.07649
n_activity=48086 dram_eff=0.7054
bk0: 756a 420877i bk1: 756a 420811i bk2: 732a 421957i bk3: 732a 422212i bk4: 696a 423909i bk5: 696a 424447i bk6: 704a 423439i bk7: 704a 423743i bk8: 664a 423251i bk9: 664a 423189i bk10: 652a 424004i bk11: 652a 424757i bk12: 768a 420375i bk13: 768a 420978i bk14: 760a 421708i bk15: 760a 421659i 
dram_util_bins: 0 0 0 0 0 0 0 0 0 0
dram_eff_bins: 0 0 0 0 0 0 0 0 0 0
mrqq: max=64 avg=3.42582
Memory Partition 6: 
Cache L2_bank_012:
MSHR contents

Cache L2_bank_013:
MSHR contents

In Dram Latency Queue (total = 0): 
DRAM[6]: 16 bks, busW=4 BL=8 CL=12, tRRD=2 tCCD=6, tRCD=12 tRAS=28 tRP=12 tRC=40
n_cmd=443480 n_nop=425850 n_act=343 n_pre=327 n_req=4240 n_rd=11464 n_write=5496 bw_util=0.07649
n_activity=47948 dram_eff=0.7074
bk0: 756a 422030i bk1: 756a 421988i bk2: 732a 422597i bk3: 732a 422081i bk4: 696a 424898i bk5: 696a 424470i bk6: 704a 424135i bk7: 704a 423566i bk8: 664a 423419i bk9: 664a 423338i bk10: 652a 423963i bk11: 652a 424020i bk12: 756a 422521i bk13: 756a 422209i bk14: 772a 421690i bk15: 772a 421780i 
dram_util_bins: 0 0 0 0 0 0 0 0 0 0
dram_eff_bins: 0 0 0 0 0 0 0 0 0 0
mrqq: max=64 avg=3.43487
Memory Partition 7: 
Cache L2_bank_014:
MSHR contents

Cache L2_bank_015:
MSHR contents

In Dram Latency Queue (total = 0): 
DRAM[7]: 16 bks, busW=4 BL=8 CL=12, tRRD=2 tCCD=6, tRCD=12 tRAS=28 tRP=12 tRC=40
n_cmd=443480 n_nop=425822 n_act=349 n_pre=333 n_req=4244 n_rd=11472 n_write=5504 bw_util=0.07656
n_activity=48292 dram_eff=0.7031
bk0: 756a 421349i bk1: 756a 421502i bk2: 732a 423060i bk3: 732a 423002i bk4: 696a 424115i bk5: 696a 424108i bk6: 704a 424046i bk7: 704a 423631i bk8: 656a 424135i bk9: 656a 423951i bk10: 664a 423907i bk11: 664a 424281i bk12: 756a 421872i bk13: 756a 421712i bk14: 772a 421759i bk15: 772a 422015i 
dram_util_bins: 0 0 0 0 0 0 0 0 0 0
dram_eff_bins: 0 0 0 0 0 0 0 0 0 0
mrqq: max=64 avg=3.43519
Memory Partition 8: 
Cache L2_bank_016:
MSHR contents

Cache L2_bank_017:
MSHR contents

In Dram Latency Queue (total = 0): 
DRAM[8]: 16 bks, busW=4 BL=8 CL=12, tRRD=2 tCCD=6, tRCD=12 tRAS=28 tRP=12 tRC=40
n_cmd=443480 n_nop=425804 n_act=366 n_pre=350 n_req=4240 n_rd=11464 n_write=5496 bw_util=0.07649
n_activity=48091 dram_eff=0.7053
bk0: 756a 421643i bk1: 756a 421954i bk2: 732a 422404i bk3: 732a 422128i bk4: 692a 424796i bk5: 692a 424483i bk6: 704a 423511i bk7: 704a 423208i bk8: 656a 423754i bk9: 656a 423737i bk10: 664a 422819i bk11: 664a 423141i bk12: 756a 421432i bk13: 756a 421326i bk14: 772a 421350i bk15: 772a 421092i 
dram_util_bins: 0 0 0 0 0 0 0 0 0 0
dram_eff_bins: 0 0 0 0 0 0 0 0 0 0
mrqq: max=64 avg=3.42841
Memory Partition 9: 
Cache L2_bank_018:
MSHR contents

Cache L2_bank_019:
MSHR contents

In Dram Latency Queue (total = 0): 
DRAM[9]: 16 bks, busW=4 BL=8 CL=12, tRRD=2 tCCD=6, tRCD=12 tRAS=28 tRP=12 tRC=40
n_cmd=443480 n_nop=425860 n_act=342 n_pre=326 n_req=4238 n_rd=11456 n_write=5496 bw_util=0.07645
n_activity=48041 dram_eff=0.7057
bk0: 768a 420120i bk1: 768a 420049i bk2: 732a 422183i bk3: 732a 422941i bk4: 692a 424204i bk5: 692a 424288i bk6: 704a 423243i bk7: 704a 423696i bk8: 652a 423480i bk9: 652a 423910i bk10: 664a 423186i bk11: 664a 423573i bk12: 756a 422258i bk13: 756a 422089i bk14: 760a 421896i bk15: 760a 421993i 
dram_util_bins: 0 0 0 0 0 0 0 0 0 0
dram_eff_bins: 0 0 0 0 0 0 0 0 0 0
mrqq: max=64 avg=3.41976
Memory Partition 10: 
Cache L2_bank_020:
MSHR contents

Cache L2_bank_021:
MSHR contents

In Dram Latency Queue (total = 0): 
DRAM[10]: 16 bks, busW=4 BL=8 CL=12, tRRD=2 tCCD=6, tRCD=12 tRAS=28 tRP=12 tRC=40
n_cmd=443480 n_nop=425782 n_act=373 n_pre=357 n_req=4242 n_rd=11464 n_write=5504 bw_util=0.07652
n_activity=48074 dram_eff=0.7059
bk0: 768a 421238i bk1: 768a 421142i bk2: 732a 422483i bk3: 732a 422350i bk4: 692a 424602i bk5: 692a 424552i bk6: 704a 423544i bk7: 704a 423460i bk8: 652a 424790i bk9: 652a 424546i bk10: 656a 424369i bk11: 656a 423836i bk12: 768a 421098i bk13: 768a 420764i bk14: 760a 422196i bk15: 760a 422205i 
dram_util_bins: 0 0 0 0 0 0 0 0 0 0
dram_eff_bins: 0 0 0 0 0 0 0 0 0 0
mrqq: max=64 avg=3.43674

========= L2 cache stats =========
L2_cache_bank[0]: Access = 2169, Miss = 1433, Miss_rate = 0.661, Pending_hits = 55, Reservation_fails = 0
L2_cache_bank[1]: Access = 2140, Miss = 1432, Miss_rate = 0.669, Pending_hits = 210, Reservation_fails = 0
L2_cache_bank[2]: Access = 2141, Miss = 1433, Miss_rate = 0.669, Pending_hits = 5, Reservation_fails = 0
L2_cache_bank[3]: Access = 2114, Miss = 1432, Miss_rate = 0.677, Pending_hits = 191, Reservation_fails = 0
L2_cache_bank[4]: Access = 2115, Miss = 1432, Miss_rate = 0.677, Pending_hits = 2, Reservation_fails = 0
L2_cache_bank[5]: Access = 2115, Miss = 1432, Miss_rate = 0.677, Pending_hits = 195, Reservation_fails = 0
L2_cache_bank[6]: Access = 2113, Miss = 1432, Miss_rate = 0.678, Pending_hits = 1, Reservation_fails = 0
L2_cache_bank[7]: Access = 2112, Miss = 1432, Miss_rate = 0.678, Pending_hits = 196, Reservation_fails = 0
L2_cache_bank[8]: Access = 2142, Miss = 1434, Miss_rate = 0.669, Pending_hits = 30, Reservation_fails = 0
L2_cache_bank[9]: Access = 2143, Miss = 1434, Miss_rate = 0.669, Pending_hits = 226, Reservation_fails = 0
L2_cache_bank[10]: Access = 2142, Miss = 1433, Miss_rate = 0.669, Pending_hits = 29, Reservation_fails = 0
L2_cache_bank[11]: Access = 2141, Miss = 1433, Miss_rate = 0.669, Pending_hits = 221, Reservation_fails = 0
L2_cache_bank[12]: Access = 2140, Miss = 1433, Miss_rate = 0.670, Pending_hits = 28, Reservation_fails = 0
L2_cache_bank[13]: Access = 2141, Miss = 1433, Miss_rate = 0.669, Pending_hits = 222, Reservation_fails = 0
L2_cache_bank[14]: Access = 2144, Miss = 1434, Miss_rate = 0.669, Pending_hits = 30, Reservation_fails = 0
L2_cache_bank[15]: Access = 2144, Miss = 1434, Miss_rate = 0.669, Pending_hits = 223, Reservation_fails = 0
L2_cache_bank[16]: Access = 2142, Miss = 1433, Miss_rate = 0.669, Pending_hits = 28, Reservation_fails = 0
L2_cache_bank[17]: Access = 2141, Miss = 1433, Miss_rate = 0.669, Pending_hits = 221, Reservation_fails = 0
L2_cache_bank[18]: Access = 2140, Miss = 1432, Miss_rate = 0.669, Pending_hits = 14, Reservation_fails = 0
L2_cache_bank[19]: Access = 2141, Miss = 1432, Miss_rate = 0.669, Pending_hits = 195, Reservation_fails = 0
L2_cache_bank[20]: Access = 2144, Miss = 1433, Miss_rate = 0.668, Pending_hits = 13, Reservation_fails = 0
L2_cache_bank[21]: Access = 2144, Miss = 1433, Miss_rate = 0.668, Pending_hits = 221, Reservation_fails = 0
L2_total_cache_accesses = 47008
L2_total_cache_misses = 31522
L2_total_cache_miss_rate = 0.6706
L2_total_cache_pending_hits = 2556
L2_total_cache_reservation_fails = 0
L2_total_cache_breakdown:
	L2_cache_stats_breakdown[GLOBAL_ACC_R][HIT] = 12838
	L2_cache_stats_breakdown[GLOBAL_ACC_R][HIT_RESERVED] = 2162
	L2_cache_stats_breakdown[GLOBAL_ACC_R][MISS] = 16384
	L2_cache_stats_breakdown[GLOBAL_ACC_R][RESERVATION_FAIL] = 0
	L2_cache_stats_breakdown[LOCAL_ACC_R][HIT] = 0
	L2_cache_stats_breakdown[LOCAL_ACC_R][HIT_RESERVED] = 0
	L2_cache_stats_breakdown[LOCAL_ACC_R][MISS] = 0
	L2_cache_stats_breakdown[LOCAL_ACC_R][RESERVATION_FAIL] = 0
	L2_cache_stats_breakdown[CONST_ACC_R][HIT] = 0
	L2_cache_stats_breakdown[CONST_ACC_R][HIT_RESERVED] = 27
	L2_cache_stats_breakdown[CONST_ACC_R][MISS] = 1
	L2_cache_stats_breakdown[CONST_ACC_R][RESERVATION_FAIL] = 0
	L2_cache_stats_breakdown[TEXTURE_ACC_R][HIT] = 0
	L2_cache_stats_breakdown[TEXTURE_ACC_R][HIT_RESERVED] = 0
	L2_cache_stats_breakdown[TEXTURE_ACC_R][MISS] = 0
	L2_cache_stats_breakdown[TEXTURE_ACC_R][RESERVATION_FAIL] = 0
	L2_cache_stats_breakdown[GLOBAL_ACC_W][HIT] = 0
	L2_cache_stats_breakdown[GLOBAL_ACC_W][HIT_RESERVED] = 0
	L2_cache_stats_breakdown[GLOBAL_ACC_W][MISS] = 15120
	L2_cache_stats_breakdown[GLOBAL_ACC_W][RESERVATION_FAIL] = 0
	L2_cache_stats_breakdown[LOCAL_ACC_W][HIT] = 0
	L2_cache_stats_breakdown[LOCAL_ACC_W][HIT_RESERVED] = 0
	L2_cache_stats_breakdown[LOCAL_ACC_W][MISS] = 0
	L2_cache_stats_breakdown[LOCAL_ACC_W][RESERVATION_FAIL] = 0
	L2_cache_stats_breakdown[L1_WRBK_ACC][HIT] = 0
	L2_cache_stats_breakdown[L1_WRBK_ACC][HIT_RESERVED] = 0
	L2_cache_stats_breakdown[L1_WRBK_ACC][MISS] = 0
	L2_cache_stats_breakdown[L1_WRBK_ACC][RESERVATION_FAIL] = 0
	L2_cache_stats_breakdown[L2_WRBK_ACC][HIT] = 0
	L2_cache_stats_breakdown[L2_WRBK_ACC][HIT_RESERVED] = 0
	L2_cache_stats_breakdown[L2_WRBK_ACC][MISS] = 0
	L2_cache_stats_breakdown[L2_WRBK_ACC][RESERVATION_FAIL] = 0
	L2_cache_stats_breakdown[INST_ACC_R][HIT] = 92
	L2_cache_stats_breakdown[INST_ACC_R][HIT_RESERVED] = 367
	L2_cache_stats_breakdown[INST_ACC_R][MISS] = 17
	L2_cache_stats_breakdown[INST_ACC_R][RESERVATION_FAIL] = 0
	L2_cache_stats_breakdown[L1_WR_ALLOC_R][HIT] = 0
	L2_cache_stats_breakdown[L1_WR_ALLOC_R][HIT_RESERVED] = 0
	L2_cache_stats_breakdown[L1_WR_ALLOC_R][MISS] = 0
	L2_cache_stats_breakdown[L1_WR_ALLOC_R][RESERVATION_FAIL] = 0
	L2_cache_stats_breakdown[L2_WR_ALLOC_R][HIT] = 0
	L2_cache_stats_breakdown[L2_WR_ALLOC_R][HIT_RESERVED] = 0
	L2_cache_stats_breakdown[L2_WR_ALLOC_R][MISS] = 0
	L2_cache_stats_breakdown[L2_WR_ALLOC_R][RESERVATION_FAIL] = 0
	L2_cache_stats_breakdown[GLOBAL_ACC_R][TOTAL_ACCESS] = 31384
	L2_cache_stats_breakdown[CONST_ACC_R][TOTAL_ACCESS] = 28
	L2_cache_stats_breakdown[GLOBAL_ACC_W][TOTAL_ACCESS] = 15120
	L2_cache_stats_breakdown[INST_ACC_R][TOTAL_ACCESS] = 476
L2_cache_data_port_util = 0.007
L2_cache_fill_port_util = 0.024

icnt_total_pkts_mem_to_simt=151824
icnt_total_pkts_simt_to_mem=107488
LD_mem_lat_dist  0 0 0 0 0 0 0 0 0 0 0 0 0 0 0 0 0 0 0 0 0 0 0 0 0 0 0
ST_mem_lat_dist  0 0 0 0 0 0 0 0 0 0 0 0 0 0 0 0 0 0 0 0 0 0 0 0 0 0 0
----------------------------Interconnect-DETAILS--------------------------------
Class 0:
Packet latency average = 29.3623
	minimum = 6
	maximum = 1399
Network latency average = 23.0345
	minimum = 6
	maximum = 1322
Slowest packet = 66032
Flit latency average = 28.3823
	minimum = 6
	maximum = 1318
Slowest flit = 179268
Fragmentation average = 1.50311
	minimum = 0
	maximum = 1273
Injected packet rate average = 0.00393646
	minimum = 0.00311932 (at node 0)
	maximum = 0.00466014 (at node 3)
Accepted packet rate average = 0.00393646
	minimum = 0.00311932 (at node 0)
	maximum = 0.00466014 (at node 3)
Injected flit rate average = 0.0108574
	minimum = 0.00713885 (at node 0)
	maximum = 0.0146734 (at node 28)
Accepted flit rate average= 0.0108574
	minimum = 0.0100656 (at node 0)
	maximum = 0.0150062 (at node 3)
Injected packet length average = 2.75817
Accepted packet length average = 2.75817
Total in-flight flits = 0 (0 measured)
====== Overall Traffic Statistics ======
====== Traffic class 0 ======
Packet latency average = 29.3623 (1 samples)
	minimum = 6 (1 samples)
	maximum = 1399 (1 samples)
Network latency average = 23.0345 (1 samples)
	minimum = 6 (1 samples)
	maximum = 1322 (1 samples)
Flit latency average = 28.3823 (1 samples)
	minimum = 6 (1 samples)
	maximum = 1318 (1 samples)
Fragmentation average = 1.50311 (1 samples)
	minimum = 0 (1 samples)
	maximum = 1273 (1 samples)
Injected packet rate average = 0.00393646 (1 samples)
	minimum = 0.00311932 (1 samples)
	maximum = 0.00466014 (1 samples)
Accepted packet rate average = 0.00393646 (1 samples)
	minimum = 0.00311932 (1 samples)
	maximum = 0.00466014 (1 samples)
Injected flit rate average = 0.0108574 (1 samples)
	minimum = 0.00713885 (1 samples)
	maximum = 0.0146734 (1 samples)
Accepted flit rate average = 0.0108574 (1 samples)
	minimum = 0.0100656 (1 samples)
	maximum = 0.0150062 (1 samples)
Injected packet size average = 2.75817 (1 samples)
Accepted packet size average = 2.75817 (1 samples)
Hops average = 1 (1 samples)
----------------------------END-of-Interconnect-DETAILS-------------------------


gpgpu_simulation_time = 0 days, 0 hrs, 7 min, 58 sec (478 sec)
gpgpu_simulation_rate = 60353 (inst/sec)
gpgpu_simulation_rate = 1040 (cycle/sec)

GPGPU-Sim PTX: cudaLaunch for 0x0x401680 (mode=performance simulation) on stream 3
GPGPU-Sim PTX: pushing kernel '_Z24block2D_hybrid_coarsen_xffPfS_iii' to stream 3, gridDim= (2,32,1) blockDim = (32,4,1) 
GPGPU-Sim uArch: Shader 9 bind to kernel 2 '_Z24block2D_hybrid_coarsen_xffPfS_iii'
GPGPU-Sim uArch: Shader 10 bind to kernel 2 '_Z24block2D_hybrid_coarsen_xffPfS_iii'
GPGPU-Sim uArch: Shader 11 bind to kernel 2 '_Z24block2D_hybrid_coarsen_xffPfS_iii'
GPGPU-Sim uArch: Shader 12 bind to kernel 2 '_Z24block2D_hybrid_coarsen_xffPfS_iii'
GPGPU-Sim uArch: Shader 13 bind to kernel 2 '_Z24block2D_hybrid_coarsen_xffPfS_iii'
GPGPU-Sim uArch: Shader 14 bind to kernel 2 '_Z24block2D_hybrid_coarsen_xffPfS_iii'
GPGPU-Sim uArch: Shader 15 bind to kernel 2 '_Z24block2D_hybrid_coarsen_xffPfS_iii'
GPGPU-Sim uArch: Shader 16 bind to kernel 2 '_Z24block2D_hybrid_coarsen_xffPfS_iii'
GPGPU-Sim uArch: Shader 17 bind to kernel 2 '_Z24block2D_hybrid_coarsen_xffPfS_iii'
GPGPU-Sim uArch: Shader 18 bind to kernel 2 '_Z24block2D_hybrid_coarsen_xffPfS_iii'
GPGPU-Sim uArch: Shader 19 bind to kernel 2 '_Z24block2D_hybrid_coarsen_xffPfS_iii'
GPGPU-Sim uArch: Shader 20 bind to kernel 2 '_Z24block2D_hybrid_coarsen_xffPfS_iii'
GPGPU-Sim uArch: Shader 21 bind to kernel 2 '_Z24block2D_hybrid_coarsen_xffPfS_iii'
GPGPU-Sim uArch: Shader 22 bind to kernel 2 '_Z24block2D_hybrid_coarsen_xffPfS_iii'
GPGPU-Sim uArch: Shader 23 bind to kernel 2 '_Z24block2D_hybrid_coarsen_xffPfS_iii'
GPGPU-Sim uArch: Shader 24 bind to kernel 2 '_Z24block2D_hybrid_coarsen_xffPfS_iii'
GPGPU-Sim uArch: Shader 25 bind to kernel 2 '_Z24block2D_hybrid_coarsen_xffPfS_iii'
GPGPU-Sim uArch: Shader 26 bind to kernel 2 '_Z24block2D_hybrid_coarsen_xffPfS_iii'
GPGPU-Sim uArch: Shader 27 bind to kernel 2 '_Z24block2D_hybrid_coarsen_xffPfS_iii'
GPGPU-Sim uArch: Shader 0 bind to kernel 2 '_Z24block2D_hybrid_coarsen_xffPfS_iii'
GPGPU-Sim uArch: Shader 1 bind to kernel 2 '_Z24block2D_hybrid_coarsen_xffPfS_iii'
GPGPU-Sim uArch: Shader 2 bind to kernel 2 '_Z24block2D_hybrid_coarsen_xffPfS_iii'
GPGPU-Sim uArch: Shader 3 bind to kernel 2 '_Z24block2D_hybrid_coarsen_xffPfS_iii'
GPGPU-Sim uArch: Shader 4 bind to kernel 2 '_Z24block2D_hybrid_coarsen_xffPfS_iii'
GPGPU-Sim uArch: Shader 5 bind to kernel 2 '_Z24block2D_hybrid_coarsen_xffPfS_iii'
GPGPU-Sim uArch: Shader 6 bind to kernel 2 '_Z24block2D_hybrid_coarsen_xffPfS_iii'
GPGPU-Sim uArch: Shader 7 bind to kernel 2 '_Z24block2D_hybrid_coarsen_xffPfS_iii'
GPGPU-Sim uArch: Shader 8 bind to kernel 2 '_Z24block2D_hybrid_coarsen_xffPfS_iii'
Destroy streams for kernel 2: size 0
kernel_name = _Z24block2D_hybrid_coarsen_xffPfS_iii 
kernel_launch_uid = 2 
gpu_sim_cycle = 40712
gpu_sim_insn = 28848876
gpu_ipc =     708.6086
gpu_tot_sim_cycle = 760338
gpu_tot_sim_insn = 57697752
gpu_tot_ipc =      75.8843
gpu_tot_issued_cta = 128
max_total_param_size = 0
gpu_stall_dramfull = 141527
gpu_stall_icnt2sh    = 5357
partiton_reqs_in_parallel = 895664
partiton_reqs_in_parallel_total    = 5112843
partiton_level_parallism =      22.0000
partiton_level_parallism_total  =       7.9024
partiton_reqs_in_parallel_util = 895664
partiton_reqs_in_parallel_util_total    = 5112843
gpu_sim_cycle_parition_util = 40712
gpu_tot_sim_cycle_parition_util    = 238147
partiton_level_parallism_util =      22.0000
partiton_level_parallism_util_total  =      21.5468
partiton_replys_in_parallel = 46504
partiton_replys_in_parallel_total    = 47008
L2_BW  =     108.2687 GB/Sec
L2_BW_total  =      11.6572 GB/Sec
gpu_total_sim_rate=90719

========= Core cache stats =========
L1I_cache:
	L1I_total_cache_accesses = 1158456
	L1I_total_cache_misses = 4232
	L1I_total_cache_miss_rate = 0.0037
	L1I_total_cache_pending_hits = 0
	L1I_total_cache_reservation_fails = 0
L1D_cache:
	L1D_cache_core[0]: Access = 0, Miss = 0, Miss_rate = -nan, Pending_hits = 0, Reservation_fails = 0
	L1D_cache_core[1]: Access = 0, Miss = 0, Miss_rate = -nan, Pending_hits = 0, Reservation_fails = 0
	L1D_cache_core[2]: Access = 0, Miss = 0, Miss_rate = -nan, Pending_hits = 0, Reservation_fails = 0
	L1D_cache_core[3]: Access = 0, Miss = 0, Miss_rate = -nan, Pending_hits = 0, Reservation_fails = 0
	L1D_cache_core[4]: Access = 0, Miss = 0, Miss_rate = -nan, Pending_hits = 0, Reservation_fails = 0
	L1D_cache_core[5]: Access = 0, Miss = 0, Miss_rate = -nan, Pending_hits = 0, Reservation_fails = 0
	L1D_cache_core[6]: Access = 0, Miss = 0, Miss_rate = -nan, Pending_hits = 0, Reservation_fails = 0
	L1D_cache_core[7]: Access = 0, Miss = 0, Miss_rate = -nan, Pending_hits = 0, Reservation_fails = 0
	L1D_cache_core[8]: Access = 0, Miss = 0, Miss_rate = -nan, Pending_hits = 0, Reservation_fails = 0
	L1D_cache_core[9]: Access = 0, Miss = 0, Miss_rate = -nan, Pending_hits = 0, Reservation_fails = 0
	L1D_cache_core[10]: Access = 0, Miss = 0, Miss_rate = -nan, Pending_hits = 0, Reservation_fails = 0
	L1D_cache_core[11]: Access = 0, Miss = 0, Miss_rate = -nan, Pending_hits = 0, Reservation_fails = 0
	L1D_cache_core[12]: Access = 0, Miss = 0, Miss_rate = -nan, Pending_hits = 0, Reservation_fails = 0
	L1D_cache_core[13]: Access = 0, Miss = 0, Miss_rate = -nan, Pending_hits = 0, Reservation_fails = 0
	L1D_cache_core[14]: Access = 0, Miss = 0, Miss_rate = -nan, Pending_hits = 0, Reservation_fails = 0
	L1D_cache_core[15]: Access = 0, Miss = 0, Miss_rate = -nan, Pending_hits = 0, Reservation_fails = 0
	L1D_cache_core[16]: Access = 0, Miss = 0, Miss_rate = -nan, Pending_hits = 0, Reservation_fails = 0
	L1D_cache_core[17]: Access = 0, Miss = 0, Miss_rate = -nan, Pending_hits = 0, Reservation_fails = 0
	L1D_cache_core[18]: Access = 0, Miss = 0, Miss_rate = -nan, Pending_hits = 0, Reservation_fails = 0
	L1D_cache_core[19]: Access = 0, Miss = 0, Miss_rate = -nan, Pending_hits = 0, Reservation_fails = 0
	L1D_cache_core[20]: Access = 0, Miss = 0, Miss_rate = -nan, Pending_hits = 0, Reservation_fails = 0
	L1D_cache_core[21]: Access = 0, Miss = 0, Miss_rate = -nan, Pending_hits = 0, Reservation_fails = 0
	L1D_cache_core[22]: Access = 0, Miss = 0, Miss_rate = -nan, Pending_hits = 0, Reservation_fails = 0
	L1D_cache_core[23]: Access = 0, Miss = 0, Miss_rate = -nan, Pending_hits = 0, Reservation_fails = 0
	L1D_cache_core[24]: Access = 0, Miss = 0, Miss_rate = -nan, Pending_hits = 0, Reservation_fails = 0
	L1D_cache_core[25]: Access = 0, Miss = 0, Miss_rate = -nan, Pending_hits = 0, Reservation_fails = 0
	L1D_cache_core[26]: Access = 0, Miss = 0, Miss_rate = -nan, Pending_hits = 0, Reservation_fails = 0
	L1D_cache_core[27]: Access = 0, Miss = 0, Miss_rate = -nan, Pending_hits = 0, Reservation_fails = 0
	L1D_total_cache_accesses = 0
	L1D_total_cache_misses = 0
	L1D_total_cache_pending_hits = 0
	L1D_total_cache_reservation_fails = 0
	L1D_cache_data_port_util = 0.000
	L1D_cache_fill_port_util = 0.000
L1C_cache:
	L1C_total_cache_accesses = 3584
	L1C_total_cache_misses = 1632
	L1C_total_cache_miss_rate = 0.4554
	L1C_total_cache_pending_hits = 0
	L1C_total_cache_reservation_fails = 1444
L1T_cache:
	L1T_total_cache_accesses = 0
	L1T_total_cache_misses = 0
	L1T_total_cache_pending_hits = 0
	L1T_total_cache_reservation_fails = 0

Total_core_cache_stats:
	Total_core_cache_stats_breakdown[GLOBAL_ACC_R][HIT] = 0
	Total_core_cache_stats_breakdown[GLOBAL_ACC_R][HIT_RESERVED] = 0
	Total_core_cache_stats_breakdown[GLOBAL_ACC_R][MISS] = 0
	Total_core_cache_stats_breakdown[GLOBAL_ACC_R][RESERVATION_FAIL] = 0
	Total_core_cache_stats_breakdown[LOCAL_ACC_R][HIT] = 0
	Total_core_cache_stats_breakdown[LOCAL_ACC_R][HIT_RESERVED] = 0
	Total_core_cache_stats_breakdown[LOCAL_ACC_R][MISS] = 0
[...]
	L2_cache_stats_breakdown[L1_WRBK_ACC][HIT] = 0
	L2_cache_stats_breakdown[L1_WRBK_ACC][HIT_RESERVED] = 0
	L2_cache_stats_breakdown[L1_WRBK_ACC][MISS] = 0
	L2_cache_stats_breakdown[L1_WRBK_ACC][RESERVATION_FAIL] = 0
	L2_cache_stats_breakdown[L2_WRBK_ACC][HIT] = 0
	L2_cache_stats_breakdown[L2_WRBK_ACC][HIT_RESERVED] = 0
	L2_cache_stats_breakdown[L2_WRBK_ACC][MISS] = 0
	L2_cache_stats_breakdown[L2_WRBK_ACC][RESERVATION_FAIL] = 0
	L2_cache_stats_breakdown[INST_ACC_R][HIT] = 92
	L2_cache_stats_breakdown[INST_ACC_R][HIT_RESERVED] = 367
	L2_cache_stats_breakdown[INST_ACC_R][MISS] = 17
	L2_cache_stats_breakdown[INST_ACC_R][RESERVATION_FAIL] = 0
	L2_cache_stats_breakdown[L1_WR_ALLOC_R][HIT] = 0
	L2_cache_stats_breakdown[L1_WR_ALLOC_R][HIT_RESERVED] = 0
	L2_cache_stats_breakdown[L1_WR_ALLOC_R][MISS] = 0
	L2_cache_stats_breakdown[L1_WR_ALLOC_R][RESERVATION_FAIL] = 0
	L2_cache_stats_breakdown[L2_WR_ALLOC_R][HIT] = 0
	L2_cache_stats_breakdown[L2_WR_ALLOC_R][HIT_RESERVED] = 0
	L2_cache_stats_breakdown[L2_WR_ALLOC_R][MISS] = 0
	L2_cache_stats_breakdown[L2_WR_ALLOC_R][RESERVATION_FAIL] = 0
	L2_cache_stats_breakdown[GLOBAL_ACC_R][TOTAL_ACCESS] = 1255360
	L2_cache_stats_breakdown[CONST_ACC_R][TOTAL_ACCESS] = 28
	L2_cache_stats_breakdown[GLOBAL_ACC_W][TOTAL_ACCESS] = 604800
	L2_cache_stats_breakdown[INST_ACC_R][TOTAL_ACCESS] = 476
L2_cache_data_port_util = 0.038
L2_cache_fill_port_util = 0.128

icnt_total_pkts_mem_to_simt=5976864
icnt_total_pkts_simt_to_mem=4279864
LD_mem_lat_dist  0 0 0 0 0 0 0 0 0 0 0 0 0 0 0 0 0 0 0 0 0 0 0 0 0 0 0
ST_mem_lat_dist  0 0 0 0 0 0 0 0 0 0 0 0 0 0 0 0 0 0 0 0 0 0 0 0 0 0 0
----------------------------Interconnect-DETAILS--------------------------------
Class 0:
Packet latency average = 8.50883
	minimum = 6
	maximum = 54
Network latency average = 8.38655
	minimum = 6
	maximum = 50
Slowest packet = 3681055
Flit latency average = 6.84167
	minimum = 6
	maximum = 46
Slowest flit = 10145711
Fragmentation average = 0
	minimum = 0
	maximum = 0
Injected packet rate average = 0.0237483
	minimum = 0.0187928 (at node 0)
	maximum = 0.0281892 (at node 7)
Accepted packet rate average = 0.0237483
	minimum = 0.0187928 (at node 0)
	maximum = 0.0281892 (at node 7)
Injected flit rate average = 0.065454
	minimum = 0.0433051 (at node 0)
	maximum = 0.0867634 (at node 42)
Accepted flit rate average= 0.065454
	minimum = 0.0602594 (at node 0)
	maximum = 0.0903891 (at node 7)
Injected packet length average = 2.75615
Accepted packet length average = 2.75615
Total in-flight flits = 0 (0 measured)
====== Overall Traffic Statistics ======
====== Traffic class 0 ======
Packet latency average = 9.08036 (40 samples)
	minimum = 6 (40 samples)
	maximum = 81.775 (40 samples)
Network latency average = 8.79284 (40 samples)
	minimum = 6 (40 samples)
	maximum = 76.35 (40 samples)
Flit latency average = 7.42648 (40 samples)
	minimum = 6 (40 samples)
	maximum = 72.475 (40 samples)
Fragmentation average = 0.0375776 (40 samples)
	minimum = 0 (40 samples)
	maximum = 31.825 (40 samples)
Injected packet rate average = 0.023116 (40 samples)
	minimum = 0.0182924 (40 samples)
	maximum = 0.0274382 (40 samples)
Accepted packet rate average = 0.023116 (40 samples)
	minimum = 0.0182924 (40 samples)
	maximum = 0.0274382 (40 samples)
Injected flit rate average = 0.0637112 (40 samples)
	minimum = 0.0421509 (40 samples)
	maximum = 0.0844603 (40 samples)
Accepted flit rate average = 0.0637112 (40 samples)
	minimum = 0.0586567 (40 samples)
	maximum = 0.0879828 (40 samples)
Injected packet size average = 2.75616 (40 samples)
Accepted packet size average = 2.75616 (40 samples)
Hops average = 1 (40 samples)
----------------------------END-of-Interconnect-DETAILS-------------------------


gpgpu_simulation_time = 0 days, 1 hrs, 51 min, 5 sec (6665 sec)
gpgpu_simulation_rate = 173136 (inst/sec)
gpgpu_simulation_rate = 1605 (cycle/sec)
========================================UVM statistics==============================
========================================TLB statistics(access)==============================
Shader0: Tlb_access: 66226 Tlb_hit: 62694 Tlb_miss: 3532 Tlb_hit_rate: 0.946667
Shader1: Tlb_access: 66812 Tlb_hit: 63064 Tlb_miss: 3748 Tlb_hit_rate: 0.943902
Shader2: Tlb_access: 66812 Tlb_hit: 62992 Tlb_miss: 3820 Tlb_hit_rate: 0.942825
Shader3: Tlb_access: 66812 Tlb_hit: 63141 Tlb_miss: 3671 Tlb_hit_rate: 0.945055
Shader4: Tlb_access: 66812 Tlb_hit: 63137 Tlb_miss: 3675 Tlb_hit_rate: 0.944995
Shader5: Tlb_access: 66812 Tlb_hit: 63126 Tlb_miss: 3686 Tlb_hit_rate: 0.944830
Shader6: Tlb_access: 66812 Tlb_hit: 63046 Tlb_miss: 3766 Tlb_hit_rate: 0.943633
Shader7: Tlb_access: 66812 Tlb_hit: 63134 Tlb_miss: 3678 Tlb_hit_rate: 0.944950
Shader8: Tlb_access: 66812 Tlb_hit: 63141 Tlb_miss: 3671 Tlb_hit_rate: 0.945055
Shader9: Tlb_access: 66812 Tlb_hit: 63148 Tlb_miss: 3664 Tlb_hit_rate: 0.945160
Shader10: Tlb_access: 66812 Tlb_hit: 63061 Tlb_miss: 3751 Tlb_hit_rate: 0.943857
Shader11: Tlb_access: 66812 Tlb_hit: 63288 Tlb_miss: 3524 Tlb_hit_rate: 0.947255
Shader12: Tlb_access: 66812 Tlb_hit: 63281 Tlb_miss: 3531 Tlb_hit_rate: 0.947150
Shader13: Tlb_access: 66226 Tlb_hit: 62720 Tlb_miss: 3506 Tlb_hit_rate: 0.947060
Shader14: Tlb_access: 66226 Tlb_hit: 62593 Tlb_miss: 3633 Tlb_hit_rate: 0.945142
Shader15: Tlb_access: 66076 Tlb_hit: 62496 Tlb_miss: 3580 Tlb_hit_rate: 0.945820
Shader16: Tlb_access: 66076 Tlb_hit: 62501 Tlb_miss: 3575 Tlb_hit_rate: 0.945896
Shader17: Tlb_access: 66076 Tlb_hit: 62406 Tlb_miss: 3670 Tlb_hit_rate: 0.944458
Shader18: Tlb_access: 66076 Tlb_hit: 62319 Tlb_miss: 3757 Tlb_hit_rate: 0.943141
Shader19: Tlb_access: 66226 Tlb_hit: 62676 Tlb_miss: 3550 Tlb_hit_rate: 0.946396
Shader20: Tlb_access: 66226 Tlb_hit: 62670 Tlb_miss: 3556 Tlb_hit_rate: 0.946305
Shader21: Tlb_access: 66226 Tlb_hit: 62669 Tlb_miss: 3557 Tlb_hit_rate: 0.946290
Shader22: Tlb_access: 66226 Tlb_hit: 62573 Tlb_miss: 3653 Tlb_hit_rate: 0.944840
Shader23: Tlb_access: 66076 Tlb_hit: 62482 Tlb_miss: 3594 Tlb_hit_rate: 0.945608
Shader24: Tlb_access: 66076 Tlb_hit: 62520 Tlb_miss: 3556 Tlb_hit_rate: 0.946183
Shader25: Tlb_access: 66076 Tlb_hit: 62419 Tlb_miss: 3657 Tlb_hit_rate: 0.944655
Shader26: Tlb_access: 66076 Tlb_hit: 62336 Tlb_miss: 3740 Tlb_hit_rate: 0.943399
Shader27: Tlb_access: 66226 Tlb_hit: 62674 Tlb_miss: 3552 Tlb_hit_rate: 0.946365
Tlb_tot_access: 1860160 Tlb_tot_hit: 1758307, Tlb_tot_miss: 101853, Tlb_tot_hit_rate: 0.945245
========================================TLB statistics(validate)==============================
Shader0: Tlb_validate: 1024 Tlb_invalidate: 960 Tlb_evict: 0 Tlb_page_evict: 960
Shader1: Tlb_validate: 1024 Tlb_invalidate: 960 Tlb_evict: 0 Tlb_page_evict: 960
Shader2: Tlb_validate: 1024 Tlb_invalidate: 960 Tlb_evict: 0 Tlb_page_evict: 960
Shader3: Tlb_validate: 1024 Tlb_invalidate: 960 Tlb_evict: 0 Tlb_page_evict: 960
Shader4: Tlb_validate: 1024 Tlb_invalidate: 960 Tlb_evict: 0 Tlb_page_evict: 960
Shader5: Tlb_validate: 1024 Tlb_invalidate: 960 Tlb_evict: 0 Tlb_page_evict: 960
Shader6: Tlb_validate: 1024 Tlb_invalidate: 960 Tlb_evict: 0 Tlb_page_evict: 960
Shader7: Tlb_validate: 1024 Tlb_invalidate: 960 Tlb_evict: 0 Tlb_page_evict: 960
Shader8: Tlb_validate: 1024 Tlb_invalidate: 960 Tlb_evict: 0 Tlb_page_evict: 960
Shader9: Tlb_validate: 1024 Tlb_invalidate: 960 Tlb_evict: 0 Tlb_page_evict: 960
Shader10: Tlb_validate: 1024 Tlb_invalidate: 960 Tlb_evict: 0 Tlb_page_evict: 960
Shader11: Tlb_validate: 1024 Tlb_invalidate: 960 Tlb_evict: 0 Tlb_page_evict: 960
Shader12: Tlb_validate: 1024 Tlb_invalidate: 960 Tlb_evict: 0 Tlb_page_evict: 960
Shader13: Tlb_validate: 1024 Tlb_invalidate: 960 Tlb_evict: 0 Tlb_page_evict: 960
Shader14: Tlb_validate: 1024 Tlb_invalidate: 960 Tlb_evict: 0 Tlb_page_evict: 960
Shader15: Tlb_validate: 1024 Tlb_invalidate: 960 Tlb_evict: 0 Tlb_page_evict: 960
Shader16: Tlb_validate: 1024 Tlb_invalidate: 960 Tlb_evict: 0 Tlb_page_evict: 960
Shader17: Tlb_validate: 1024 Tlb_invalidate: 960 Tlb_evict: 0 Tlb_page_evict: 960
Shader18: Tlb_validate: 1024 Tlb_invalidate: 960 Tlb_evict: 0 Tlb_page_evict: 960
Shader19: Tlb_validate: 1024 Tlb_invalidate: 960 Tlb_evict: 0 Tlb_page_evict: 960
Shader20: Tlb_validate: 1024 Tlb_invalidate: 960 Tlb_evict: 0 Tlb_page_evict: 960
Shader21: Tlb_validate: 1024 Tlb_invalidate: 960 Tlb_evict: 0 Tlb_page_evict: 960
Shader22: Tlb_validate: 1024 Tlb_invalidate: 960 Tlb_evict: 0 Tlb_page_evict: 960
Shader23: Tlb_validate: 1024 Tlb_invalidate: 960 Tlb_evict: 0 Tlb_page_evict: 960
Shader24: Tlb_validate: 1024 Tlb_invalidate: 960 Tlb_evict: 0 Tlb_page_evict: 960
Shader25: Tlb_validate: 1024 Tlb_invalidate: 960 Tlb_evict: 0 Tlb_page_evict: 960
Shader26: Tlb_validate: 1024 Tlb_invalidate: 960 Tlb_evict: 0 Tlb_page_evict: 960
Shader27: Tlb_validate: 1024 Tlb_invalidate: 960 Tlb_evict: 0 Tlb_page_evict: 960
Tlb_tot_valiate: 28672 Tlb_invalidate: 26880, Tlb_tot_evict: 0, Tlb_tot_evict page: 26880
========================================TLB statistics(threshing)==============================
Shader0: Total 0
Shader1: Total 0
Shader2: Total 0
Shader3: Total 0
Shader4: Total 0
Shader5: Total 0
Shader6: Total 0
Shader7: Total 0
Shader8: Total 0
Shader9: Total 0
Shader10: Total 0
Shader11: Total 0
Shader12: Total 0
Shader13: Total 0
Shader14: Total 0
Shader15: Total 0
Shader16: Total 0
Shader17: Total 0
Shader18: Total 0
Shader19: Total 0
Shader20: Total 0
Shader21: Total 0
Shader22: Total 0
Shader23: Total 0
Shader24: Total 0
Shader25: Total 0
Shader26: Total 0
Shader27: Total 0
Tlb_tot_thresh: 0
========================================Page fault statistics==============================
Shader0: Page_table_access:3532 Page_hit: 3052 Page_miss: 480 Page_hit_rate: 0.864100 Page_fault: 0 Page_pending: 480
Shader1: Page_table_access:3748 Page_hit: 3088 Page_miss: 660 Page_hit_rate: 0.823906 Page_fault: 0 Page_pending: 660
Shader2: Page_table_access:3820 Page_hit: 3160 Page_miss: 660 Page_hit_rate: 0.827225 Page_fault: 0 Page_pending: 660
Shader3: Page_table_access:3671 Page_hit: 2951 Page_miss: 720 Page_hit_rate: 0.803868 Page_fault: 0 Page_pending: 720
Shader4: Page_table_access:3675 Page_hit: 2955 Page_miss: 720 Page_hit_rate: 0.804082 Page_fault: 0 Page_pending: 720
Shader5: Page_table_access:3686 Page_hit: 2966 Page_miss: 720 Page_hit_rate: 0.804666 Page_fault: 0 Page_pending: 720
Shader6: Page_table_access:3766 Page_hit: 3046 Page_miss: 720 Page_hit_rate: 0.808816 Page_fault: 0 Page_pending: 720
Shader7: Page_table_access:3678 Page_hit: 3018 Page_miss: 660 Page_hit_rate: 0.820555 Page_fault: 0 Page_pending: 660
Shader8: Page_table_access:3671 Page_hit: 3011 Page_miss: 660 Page_hit_rate: 0.820212 Page_fault: 0 Page_pending: 660
Shader9: Page_table_access:3664 Page_hit: 3184 Page_miss: 480 Page_hit_rate: 0.868996 Page_fault: 0 Page_pending: 480
Shader10: Page_table_access:3751 Page_hit: 3271 Page_miss: 480 Page_hit_rate: 0.872034 Page_fault: 0 Page_pending: 480
Shader11: Page_table_access:3524 Page_hit: 3044 Page_miss: 480 Page_hit_rate: 0.863791 Page_fault: 0 Page_pending: 480
Shader12: Page_table_access:3531 Page_hit: 3051 Page_miss: 480 Page_hit_rate: 0.864061 Page_fault: 0 Page_pending: 480
Shader13: Page_table_access:3506 Page_hit: 3026 Page_miss: 480 Page_hit_rate: 0.863092 Page_fault: 0 Page_pending: 480
Shader14: Page_table_access:3633 Page_hit: 3153 Page_miss: 480 Page_hit_rate: 0.867878 Page_fault: 0 Page_pending: 480
Shader15: Page_table_access:3580 Page_hit: 3100 Page_miss: 480 Page_hit_rate: 0.865922 Page_fault: 0 Page_pending: 480
Shader16: Page_table_access:3575 Page_hit: 3095 Page_miss: 480 Page_hit_rate: 0.865734 Page_fault: 0 Page_pending: 480
Shader17: Page_table_access:3670 Page_hit: 3190 Page_miss: 480 Page_hit_rate: 0.869210 Page_fault: 0 Page_pending: 480
Shader18: Page_table_access:3757 Page_hit: 3277 Page_miss: 480 Page_hit_rate: 0.872239 Page_fault: 0 Page_pending: 480
Shader19: Page_table_access:3550 Page_hit: 3070 Page_miss: 480 Page_hit_rate: 0.864789 Page_fault: 0 Page_pending: 480
Shader20: Page_table_access:3556 Page_hit: 3076 Page_miss: 480 Page_hit_rate: 0.865017 Page_fault: 0 Page_pending: 480
Shader21: Page_table_access:3557 Page_hit: 3077 Page_miss: 480 Page_hit_rate: 0.865055 Page_fault: 0 Page_pending: 480
Shader22: Page_table_access:3653 Page_hit: 3173 Page_miss: 480 Page_hit_rate: 0.868601 Page_fault: 0 Page_pending: 480
Shader23: Page_table_access:3594 Page_hit: 3114 Page_miss: 480 Page_hit_rate: 0.866444 Page_fault: 0 Page_pending: 480
Shader24: Page_table_access:3556 Page_hit: 3076 Page_miss: 480 Page_hit_rate: 0.865017 Page_fault: 0 Page_pending: 480
Shader25: Page_table_access:3657 Page_hit: 3177 Page_miss: 480 Page_hit_rate: 0.868745 Page_fault: 0 Page_pending: 480
Shader26: Page_table_access:3740 Page_hit: 3260 Page_miss: 480 Page_hit_rate: 0.871658 Page_fault: 0 Page_pending: 480
Shader27: Page_table_access:3552 Page_hit: 3072 Page_miss: 480 Page_hit_rate: 0.864865 Page_fault: 0 Page_pending: 480
Page_talbe_tot_access: 101853 Page_tot_hit: 86733, Page_tot_miss 15120, Page_tot_hit_rate: 0.851551 Page_tot_fault: 0 Page_tot_pending: 15120
Total_memory_access_page_fault: 0, Average_latency 0.000000
========================================Page threshing statistics==============================
Page_validate: 1024 Page_evict_diry: 0 Page_evict_not_diry: 0
Page_tot_thresh: 0
========================================Memory access statistics==============================
========================================Prefetch statistics==============================
Tot_page_hit: 0, Tot_page_miss: 1024, Tot_page_fault: 2
Avg_page_latency: 242080.859375, Avg_prefetch_size: 2097152.000000, Avg_prefetch_latency: 242081.000000
========================================PCI-e statistics==============================
Pcie_read_utilization: 0.749163
[0-25]: 0.000000, [26-50]: 0.000000, [51-75]: 1.000000, [76-100]: 0.000000
Pcie_write_utilization: 0.000000
[0-25]: -nan, [26-50]: -nan, [51-75]: -nan, [76-100]: -nan
F:        0----T:   242082 	 St: c0000000 Sz: 2097152 	 Sm: 1 	 T: prefetch(163.458481)
F:        1----T:   242082 	 St: c0000000 Sz: 2097152 	 Sm: 1 	 T: prefetch_breakdown(163.457794)
F:        1----T:   484164 	 St: c0200000 Sz: 2097152 	 Sm: 2 	 T: prefetch(326.916260)
F:        2----T:   242082 	 St: c0001000 Sz: 2097152 	 Sm: 0 	 T: memcpy_h2d(163.457123)
F:   242083----T:   484164 	 St: c0200000 Sz: 2097152 	 Sm: 2 	 T: prefetch_breakdown(163.457794)
F:   242084----T:   484164 	 St: c0201000 Sz: 2097152 	 Sm: 0 	 T: memcpy_h2d(163.457123)
F:   258641----T:   497476 	 	 	 Kl: 1 	 Sm: 3 	 T: kernel_launch(161.266037)
F:   719626----T:   760338 	 	 	 Kl: 2 	 Sm: 3 	 T: kernel_launch(27.489534)
F:   982488----T:  1023800 	 	 	 Kl: 3 	 Sm: 3 	 T: kernel_launch(27.894667)
F:  1245950----T:  1287490 	 	 	 Kl: 4 	 Sm: 3 	 T: kernel_launch(28.048616)
F:  1509640----T:  1551029 	 	 	 Kl: 5 	 Sm: 3 	 T: kernel_launch(27.946657)
F:  1773179----T:  1814789 	 	 	 Kl: 6 	 Sm: 3 	 T: kernel_launch(28.095881)
F:  2036939----T:  2078480 	 	 	 Kl: 7 	 Sm: 3 	 T: kernel_launch(28.049292)
F:  2300630----T:  2339991 	 	 	 Kl: 8 	 Sm: 3 	 T: kernel_launch(26.577312)
F:  2562141----T:  2601098 	 	 	 Kl: 9 	 Sm: 3 	 T: kernel_launch(26.304523)
F:  2823248----T:  2862418 	 	 	 Kl: 10 	 Sm: 3 	 T: kernel_launch(26.448345)
F:  3084568----T:  3123490 	 	 	 Kl: 11 	 Sm: 3 	 T: kernel_launch(26.280891)
F:  3345640----T:  3384992 	 	 	 Kl: 12 	 Sm: 3 	 T: kernel_launch(26.571236)
F:  3607142----T:  3646094 	 	 	 Kl: 13 	 Sm: 3 	 T: kernel_launch(26.301147)
F:  3868244----T:  3907561 	 	 	 Kl: 14 	 Sm: 3 	 T: kernel_launch(26.547604)
F:  4129711----T:  4168475 	 	 	 Kl: 15 	 Sm: 3 	 T: kernel_launch(26.174206)
F:  4390625----T:  4429919 	 	 	 Kl: 16 	 Sm: 3 	 T: kernel_launch(26.532072)
F:  4652069----T:  4690899 	 	 	 Kl: 17 	 Sm: 3 	 T: kernel_launch(26.218771)
F:  4913049----T:  4952438 	 	 	 Kl: 18 	 Sm: 3 	 T: kernel_launch(26.596218)
F:  5174588----T:  5213608 	 	 	 Kl: 19 	 Sm: 3 	 T: kernel_launch(26.347063)
F:  5435758----T:  5475099 	 	 	 Kl: 20 	 Sm: 3 	 T: kernel_launch(26.563808)
F:  5697249----T:  5736235 	 	 	 Kl: 21 	 Sm: 3 	 T: kernel_launch(26.324106)
F:  5958385----T:  5997508 	 	 	 Kl: 22 	 Sm: 3 	 T: kernel_launch(26.416611)
F:  6219658----T:  6258692 	 	 	 Kl: 23 	 Sm: 3 	 T: kernel_launch(26.356516)
F:  6480842----T:  6520168 	 	 	 Kl: 24 	 Sm: 3 	 T: kernel_launch(26.553680)
F:  6742318----T:  6781053 	 	 	 Kl: 25 	 Sm: 3 	 T: kernel_launch(26.154625)
F:  7003203----T:  7042457 	 	 	 Kl: 26 	 Sm: 3 	 T: kernel_launch(26.505064)
F:  7264607----T:  7303399 	 	 	 Kl: 27 	 Sm: 3 	 T: kernel_launch(26.193113)
F:  7525549----T:  7564649 	 	 	 Kl: 28 	 Sm: 3 	 T: kernel_launch(26.401081)
F:  7786799----T:  7825767 	 	 	 Kl: 29 	 Sm: 3 	 T: kernel_launch(26.311951)
F:  8047917----T:  8087141 	 	 	 Kl: 30 	 Sm: 3 	 T: kernel_launch(26.484808)
F:  8309291----T:  8348044 	 	 	 Kl: 31 	 Sm: 3 	 T: kernel_launch(26.166779)
F:  8570194----T:  8609213 	 	 	 Kl: 32 	 Sm: 3 	 T: kernel_launch(26.346388)
F:  8831363----T:  8870204 	 	 	 Kl: 33 	 Sm: 3 	 T: kernel_launch(26.226198)
F:  9092354----T:  9131498 	 	 	 Kl: 34 	 Sm: 3 	 T: kernel_launch(26.430790)
F:  9353648----T:  9392554 	 	 	 Kl: 35 	 Sm: 3 	 T: kernel_launch(26.270088)
F:  9614704----T:  9653959 	 	 	 Kl: 36 	 Sm: 3 	 T: kernel_launch(26.505739)
F:  9876109----T:  9914974 	 	 	 Kl: 37 	 Sm: 3 	 T: kernel_launch(26.242403)
F: 10137124----T: 10176241 	 	 	 Kl: 38 	 Sm: 3 	 T: kernel_launch(26.412560)
F: 10398391----T: 10437237 	 	 	 Kl: 39 	 Sm: 3 	 T: kernel_launch(26.229574)
F: 10659387----T: 10698552 	 	 	 Kl: 40 	 Sm: 3 	 T: kernel_launch(26.444969)
F: 10698552----T: 10701157 	 St: 0 Sz: 4096 	 Sm: 0 	 T: device_sync(1.758947)
F: 10698552----T: 10706792 	 St: 0 Sz: 61440 	 Sm: 0 	 T: device_sync(5.563808)
F: 10709397----T: 10712002 	 St: 0 Sz: 4096 	 Sm: 0 	 T: device_sync(1.758947)
F: 10709397----T: 10717637 	 St: 0 Sz: 61440 	 Sm: 0 	 T: device_sync(5.563808)
F: 10720242----T: 10722847 	 St: 0 Sz: 4096 	 Sm: 0 	 T: device_sync(1.758947)
F: 10720242----T: 10735937 	 St: 0 Sz: 126976 	 Sm: 0 	 T: device_sync(10.597569)
F: 10738542----T: 10741147 	 St: 0 Sz: 4096 	 Sm: 0 	 T: device_sync(1.758947)
F: 10738542----T: 10769265 	 St: 0 Sz: 258048 	 Sm: 0 	 T: device_sync(20.744766)
F: 10771870----T: 10774475 	 St: 0 Sz: 4096 	 Sm: 0 	 T: device_sync(1.758947)
F: 10771870----T: 10832706 	 St: 0 Sz: 520192 	 Sm: 0 	 T: device_sync(41.077652)
F: 10835311----T: 10837916 	 St: 0 Sz: 4096 	 Sm: 0 	 T: device_sync(1.758947)
F: 10835311----T: 10956400 	 St: 0 Sz: 1044480 	 Sm: 0 	 T: device_sync(81.761650)
F: 10959005----T: 10961610 	 St: 0 Sz: 4096 	 Sm: 0 	 T: device_sync(1.758947)
F: 10959005----T: 10967245 	 St: 0 Sz: 61440 	 Sm: 0 	 T: device_sync(5.563808)
F: 10969850----T: 10972455 	 St: 0 Sz: 4096 	 Sm: 0 	 T: device_sync(1.758947)
F: 10969850----T: 10978090 	 St: 0 Sz: 61440 	 Sm: 0 	 T: device_sync(5.563808)
F: 10980695----T: 10983300 	 St: 0 Sz: 4096 	 Sm: 0 	 T: device_sync(1.758947)
F: 10980695----T: 10996390 	 St: 0 Sz: 126976 	 Sm: 0 	 T: device_sync(10.597569)
F: 10998995----T: 11001600 	 St: 0 Sz: 4096 	 Sm: 0 	 T: device_sync(1.758947)
F: 10998995----T: 11029718 	 St: 0 Sz: 258048 	 Sm: 0 	 T: device_sync(20.744766)
F: 11032323----T: 11034928 	 St: 0 Sz: 4096 	 Sm: 0 	 T: device_sync(1.758947)
F: 11032323----T: 11093159 	 St: 0 Sz: 520192 	 Sm: 0 	 T: device_sync(41.077652)
F: 11095764----T: 11098369 	 St: 0 Sz: 4096 	 Sm: 0 	 T: device_sync(1.758947)
F: 11095764----T: 11186725 	 St: 0 Sz: 782336 	 Sm: 0 	 T: device_sync(61.418636)
Tot_prefetch_time: 484162(cycle), 326.915588(us)
Tot_kernel_exec_time: 1776061(cycle), 1199.230957(us)
Tot_kernel_exec_time_and_fault_time: 1776061(cycle), 1199.230957(us)
Tot_memcpy_h2d_time: 484160(cycle), 326.914246(us)
Tot_memcpy_d2h_time: 0(cycle), 0.000000(us)
Tot_memcpy_time: 484160(cycle), 326.914246(us)
Tot_devicesync_time: 490778(cycle), 331.382843(us)
Tot_writeback_time: 0(cycle), 0.000000(us)
Tot_memcpy_d2h_sync_wb_time: 490778(cycle), 331.382843(us)
GPGPU-Sim: *** exit detected ***
