

        *** GPGPU-Sim Simulator Version 3.2.2  [build gpgpu-sim_git-commit-7c62de1d26a7fea160a1181332b97276bc435f13_modified_409] ***


GPGPU-Sim PTX: simulation mode 0 (can change with PTX_SIM_MODE_FUNC environment variable:
               1=functional simulation only, 0=detailed performance simulator)
GPGPU-Sim: Configuration options:

-network_mode                           1 # Interconnection network mode
-inter_config_file   config_fermi_islip.icnt # Interconnection network config file
-gpgpu_ptx_use_cuobjdump                    1 # Use cuobjdump to extract ptx and sass from binaries
-gpgpu_experimental_lib_support                    0 # Try to extract code from cuda libraries [Broken because of unknown cudaGetExportTable]
-gpgpu_ptx_convert_to_ptxplus                    0 # Convert SASS (native ISA) to ptxplus and run ptxplus
-gpgpu_ptx_force_max_capability                   20 # Force maximum compute capability
-gpgpu_ptx_inst_debug_to_file                    0 # Dump executed instructions' debug information to file
-gpgpu_ptx_inst_debug_file       inst_debug.txt # Executed instructions' debug output file
-gpgpu_ptx_inst_debug_thread_uid                    1 # Thread UID for executed instructions' debug output
-gpgpu_simd_model                       1 # 1 = post-dominator
-gpgpu_shader_core_pipeline              2048:32 # shader core pipeline config, i.e., {<nthread>:<warpsize>}
-gpgpu_tex_cache:l1  16:128:24,L:R:m:N:L,F:128:4,128:2 # per-shader L1 texture cache  (READ-ONLY) config  {<nsets>:<bsize>:<assoc>,<rep>:<wr>:<alloc>:<wr_alloc>,<mshr>:<N>:<merge>,<mq>:<rf>}
-gpgpu_const_cache:l1 128:64:2,L:R:f:N:L,A:2:64,4 # per-shader L1 constant memory cache  (READ-ONLY) config  {<nsets>:<bsize>:<assoc>,<rep>:<wr>:<alloc>:<wr_alloc>,<mshr>:<N>:<merge>,<mq>} 
-gpgpu_cache:il1     8:128:4,L:R:f:N:L,A:2:48,4 # shader L1 instruction cache config  {<nsets>:<bsize>:<assoc>,<rep>:<wr>:<alloc>:<wr_alloc>,<mshr>:<N>:<merge>,<mq>} 
-gpgpu_cache:dl1     64:128:6,L:L:m:N:H,A:128:8,8 # per-shader L1 data cache config  {<nsets>:<bsize>:<assoc>,<rep>:<wr>:<alloc>:<wr_alloc>,<mshr>:<N>:<merge>,<mq> | none}
-gpgpu_cache:dl1PrefL1                 none # per-shader L1 data cache config  {<nsets>:<bsize>:<assoc>,<rep>:<wr>:<alloc>:<wr_alloc>,<mshr>:<N>:<merge>,<mq> | none}
-gpgpu_cache:dl1PrefShared                 none # per-shader L1 data cache config  {<nsets>:<bsize>:<assoc>,<rep>:<wr>:<alloc>:<wr_alloc>,<mshr>:<N>:<merge>,<mq> | none}
-gmem_skip_L1D                          1 # global memory access skip L1D cache (implements -Xptxas -dlcm=cg, default=no skip)
-gpgpu_perfect_mem                      0 # enable perfect memory mode (no cache miss)
-n_regfile_gating_group                    4 # group of lanes that should be read/written together)
-gpgpu_clock_gated_reg_file                    0 # enable clock gated reg file for power calculations
-gpgpu_clock_gated_lanes                    0 # enable clock gated lanes for power calculations
-gpgpu_shader_registers                65536 # Number of registers per shader core. Limits number of concurrent CTAs. (default 8192)
-gpgpu_shader_cta                      32 # Maximum number of concurrent CTAs in shader (default 8)
-gpgpu_num_cta_barriers                   16 # Maximum number of named barriers per CTA (default 16)
-gpgpu_n_clusters                      28 # number of processing clusters
-gpgpu_n_cores_per_cluster                    1 # number of simd cores per cluster
-gpgpu_n_cluster_ejection_buffer_size                    8 # number of packets in ejection buffer
-gpgpu_n_ldst_response_buffer_size                    2 # number of response packets in ld/st unit ejection buffer
-gpgpu_shmem_size                   16384 # Size of shared memory per shader core (default 16kB)
-gpgpu_shmem_size                   98304 # Size of shared memory per shader core (default 16kB)
-gpgpu_shmem_size_PrefL1                16384 # Size of shared memory per shader core (default 16kB)
-gpgpu_shmem_size_PrefShared                16384 # Size of shared memory per shader core (default 16kB)
-gpgpu_shmem_num_banks                   32 # Number of banks in the shared memory in each shader core (default 16)
-gpgpu_shmem_limited_broadcast                    0 # Limit shared memory to do one broadcast per cycle (default on)
-gpgpu_shmem_warp_parts                    1 # Number of portions a warp is divided into for shared memory bank conflict check 
-gpgpu_warpdistro_shader                   -1 # Specify which shader core to collect the warp size distribution from
-gpgpu_warp_issue_shader                    0 # Specify which shader core to collect the warp issue distribution from
-gpgpu_local_mem_map                    1 # Mapping from local memory space address to simulated GPU physical address space (default = enabled)
-gpgpu_num_reg_banks                   32 # Number of register banks (default = 8)
-gpgpu_reg_bank_use_warp_id                    0 # Use warp ID in mapping registers to banks (default = off)
-gpgpu_operand_collector_num_units_sp                   20 # number of collector units (default = 4)
-gpgpu_operand_collector_num_units_sfu                    4 # number of collector units (default = 4)
-gpgpu_operand_collector_num_units_mem                    8 # number of collector units (default = 2)
-gpgpu_operand_collector_num_units_gen                    0 # number of collector units (default = 0)
-gpgpu_operand_collector_num_in_ports_sp                    4 # number of collector unit in ports (default = 1)
-gpgpu_operand_collector_num_in_ports_sfu                    1 # number of collector unit in ports (default = 1)
-gpgpu_operand_collector_num_in_ports_mem                    1 # number of collector unit in ports (default = 1)
-gpgpu_operand_collector_num_in_ports_gen                    0 # number of collector unit in ports (default = 0)
-gpgpu_operand_collector_num_out_ports_sp                    4 # number of collector unit in ports (default = 1)
-gpgpu_operand_collector_num_out_ports_sfu                    1 # number of collector unit in ports (default = 1)
-gpgpu_operand_collector_num_out_ports_mem                    1 # number of collector unit in ports (default = 1)
-gpgpu_operand_collector_num_out_ports_gen                    0 # number of collector unit in ports (default = 0)
-gpgpu_coalesce_arch                   13 # Coalescing arch (default = 13, anything else is off for now)
-gpgpu_num_sched_per_core                    2 # Number of warp schedulers per core
-gpgpu_max_insn_issue_per_warp                    2 # Max number of instructions that can be issued per warp in one cycle by scheduler
-gpgpu_simt_core_sim_order                    1 # Select the simulation order of cores in a cluster (0=Fix, 1=Round-Robin)
-gpgpu_pipeline_widths        4,1,1,4,1,1,6 # Pipeline widths ID_OC_SP,ID_OC_SFU,ID_OC_MEM,OC_EX_SP,OC_EX_SFU,OC_EX_MEM,EX_WB
-gpgpu_num_sp_units                     4 # Number of SP units (default=1)
-gpgpu_num_sfu_units                    1 # Number of SF units (default=1)
-gpgpu_num_mem_units                    1 # Number if ldst units (default=1) WARNING: not hooked up to anything
-gpgpu_scheduler                      gto # Scheduler configuration: < lrr | gto | two_level_active > If two_level_active:<num_active_warps>:<inner_prioritization>:<outer_prioritization>For complete list of prioritization values see shader.h enum scheduler_prioritization_typeDefault: gto
-gpgpu_concurrent_kernel_sm                    0 # Support concurrent kernels on a SM (default = disabled)
-tlb_size                            4096 # Number of tlb entries per SM.
-gpgpu_dram_scheduler                    1 # 0 = fifo, 1 = FR-FCFS (defaul)
-gpgpu_dram_partition_queues              8:8:8:8 # i2$:$2d:d2$:$2i
-l2_ideal                               0 # Use a ideal L2 cache that always hit
-gpgpu_cache:dl2     64:128:16,L:B:m:W:L,A:1024:1024,4:0,32 # unified banked L2 data cache config  {<nsets>:<bsize>:<assoc>,<rep>:<wr>:<alloc>:<wr_alloc>,<mshr>:<N>:<merge>,<mq>}
-gpgpu_cache:dl2_texture_only                    0 # L2 cache used for texture only
-gpgpu_n_mem                           11 # number of memory modules (e.g. memory controllers) in gpu
-gpgpu_n_sub_partition_per_mchannel                    2 # number of memory subpartition in each memory module
-gpgpu_n_mem_per_ctrlr                    1 # number of memory chips per memory controller
-gpgpu_memlatency_stat                   14 # track and display latency statistics 0x2 enables MC, 0x4 enables queue logs
-gpgpu_frfcfs_dram_sched_queue_size                   64 # 0 = unlimited (default); # entries per chip
-gpgpu_dram_return_queue_size                  116 # 0 = unlimited (default); # entries per chip
-gpgpu_dram_buswidth                    4 # default = 4 bytes (8 bytes per cycle at DDR)
-gpgpu_dram_burst_length                    8 # Burst length of each DRAM request (default = 4 data bus cycle)
-dram_data_command_freq_ratio                    4 # Frequency ratio between DRAM data bus and command bus (default = 2 times, i.e. DDR)
-gpgpu_dram_timing_opt nbk=16:CCD=2:RRD=6:RCD=12:RAS=28:RP=12:RC=40: CL=12:WL=4:CDLR=5:WR=12:nbkgrp=1:CCDL=0:RTPL=0 # DRAM timing parameters = {nbk:tCCD:tRRD:tRCD:tRAS:tRP:tRC:CL:WL:tCDLR:tWR:nbkgrp:tCCDL:tRTPL}
-rop_latency                          120 # ROP queue latency (default 85)
-dram_latency                         100 # DRAM latency (default 30)
-gpgpu_mem_addr_mapping dramid@8;00000000.00000000.00000000.00000000.0000RRRR.RRRRRRRR.RBBBCCCC.BCCSSSSS # mapping memory address to dram model {dramid@<start bit>;<memory address map>}
-gpgpu_mem_addr_test                    0 # run sweep test to check address mapping for aliased address
-gpgpu_mem_address_mask                    1 # 0 = old addressing mask, 1 = new addressing mask, 2 = new add. mask + flipped bank sel and chip sel bits
-gpuwattch_xml_file  gpuwattch_geforcegtx1080ti.xml # GPUWattch XML file
-power_simulation_enabled                    1 # Turn on power simulator (1=On, 0=Off)
-power_per_cycle_dump                    0 # Dump detailed power output each cycle
-power_trace_enabled                    0 # produce a file for the power trace (1=On, 0=Off)
-power_trace_zlevel                     6 # Compression level of the power trace output log (0=no comp, 9=highest)
-steady_power_levels_enabled                    0 # produce a file for the steady power levels (1=On, 0=Off)
-steady_state_definition                  8:4 # allowed deviation:number of samples
-gpgpu_max_cycle                        0 # terminates gpu simulation early (0 = no limit)
-gpgpu_max_insn                         0 # terminates gpu simulation early (0 = no limit)
-gpgpu_max_cta                          0 # terminates gpu simulation early (0 = no limit)
-gpgpu_runtime_stat                   500 # display runtime statistics such as dram utilization {<freq>:<flag>}
-liveness_message_freq                    1 # Minimum number of seconds between simulation liveness messages (0 = always print)
-gpgpu_flush_l1_cache                    0 # Flush L1 cache at the end of each kernel call
-gpgpu_flush_l2_cache                    0 # Flush L2 cache at the end of each kernel call
-gpgpu_deadlock_detect                    0 # Stop the simulation at deadlock (1=on (default), 0=off)
-gpgpu_ptx_instruction_classification                    0 # if enabled will classify ptx instruction types per kernel (Max 255 kernels now)
-gpgpu_ptx_sim_mode                     0 # Select between Performance (default) or Functional simulation (1)
-gpgpu_clock_domains 1481.0:2962.0:1481.0:2750.0 # Clock Domain Frequencies in MhZ {<Core Clock>:<ICNT Clock>:<L2 Clock>:<DRAM Clock>}
-gpgpu_max_concurrent_kernel                    8 # maximum kernels that can run concurrently on GPU
-gpgpu_cflog_interval                    0 # Interval between each snapshot in control flow logger
-visualizer_enabled                     0 # Turn on visualizer output (1=On, 0=Off)
-visualizer_outputfile                 NULL # Specifies the output log file for visualizer
-visualizer_zlevel                      6 # Compression level of the visualizer output log (0=no comp, 9=highest)
-trace_enabled                          0 # Turn on traces
-trace_components                    none # comma seperated list of traces to enable. Complete list found in trace_streams.tup. Default none
-trace_sampling_core                    0 # The core which is printed using CORE_DPRINTF. Default 0
-trace_sampling_memory_partition                   -1 # The memory partition which is printed using MEMPART_DPRINTF. Default -1 (i.e. all)
-gddr_size                            1GB # Size of GDDR in MB/GB.(GLOBAL_HEAP_START, GLOBAL_HEAP_START + gddr_size) would be used for unmanged memory, (GLOBAL_HEAP_START + gddr_size, GLOBAL_HEAP_START + gddr_size*2) would be used for managed memory. 
-page_table_walk_latency                  100 # Average page table walk latency (in core cycle).
-eviction_policy                      lru # Memory eviction policy: lru or random.
-percentage_of_free_page_buffer                    0 # Percentage of free page buffer to trigger the page eviction.
-page_size                            4KB # GDDR page size, only 4KB/2MB avaliable.
-pcie_bandwith                   16.0GB/s # PCI-e bandwith per direction, in GB/s.
-sim_prof_enable                        1 # Enable gpgpu-sim profiler
-hardware_prefetch                      1 # Enable gpgpu-sim hardware prefetcher
-page_fault_latency                 66645 # Average fault latency (in core cycle).
-enable_accurate_simulation                    0 # Enable page fault functional simulation.
-enable_ptx_file_line_stats                    1 # Turn on PTX source line statistic profiling. (1 = On)
-ptx_line_stats_filename gpgpu_inst_stats.txt # Output file for PTX source line statistics.
-gpgpu_kernel_launch_latency               222150 # Kernel launch latency in cycles. Default: 0
-gpgpu_cdp_enabled                      0 # Turn on CDP
-save_embedded_ptx                      0 # saves ptx files embedded in binary as <n>.ptx
-keep                                   0 # keep intermediate files created by GPGPU-Sim when interfacing with external programs
-gpgpu_ptx_save_converted_ptxplus                    0 # Saved converted ptxplus to a file
-ptx_opcode_latency_int         4,13,4,5,145 # Opcode latencies for integers <ADD,MAX,MUL,MAD,DIV>Default 1,1,19,25,145
-ptx_opcode_latency_fp          4,13,4,5,39 # Opcode latencies for single precision floating points <ADD,MAX,MUL,MAD,DIV>Default 1,1,1,1,30
-ptx_opcode_latency_dp         8,19,8,8,330 # Opcode latencies for double precision floating points <ADD,MAX,MUL,MAD,DIV>Default 8,8,8,8,335
-ptx_opcode_initiation_int            1,2,2,2,8 # Opcode initiation intervals for integers <ADD,MAX,MUL,MAD,DIV>Default 1,1,4,4,32
-ptx_opcode_initiation_fp            1,2,1,1,4 # Opcode initiation intervals for single precision floating points <ADD,MAX,MUL,MAD,DIV>Default 1,1,1,1,5
-ptx_opcode_initiation_dp          1,2,1,1,130 # Opcode initiation intervals for double precision floating points <ADD,MAX,MUL,MAD,DIV>Default 8,8,8,8,130
-cdp_latency         7200,8000,100,12000,1600 # CDP API latency <cudaStreamCreateWithFlags, cudaGetParameterBufferV2_init_perWarp, cudaGetParameterBufferV2_perKernel, cudaLaunchDeviceV2_init_perWarp, cudaLaunchDevicV2_perKernel>Default 7200,8000,100,12000,1600
DRAM Timing Options:
nbk                                    16 # number of banks
CCD                                     2 # column to column delay
RRD                                     6 # minimal delay between activation of rows in different banks
RCD                                    12 # row to column delay
RAS                                    28 # time needed to activate row
RP                                     12 # time needed to precharge (deactivate) row
RC                                     40 # row cycle time
CDLR                                    5 # switching from write to read (changes tWTR)
WR                                     12 # last data-in to row precharge
CL                                     12 # CAS latency
WL                                      4 # Write latency
nbkgrp                                  1 # number of bank groups
CCDL                                    0 # column to column delay between accesses to different bank groups
RTPL                                    0 # read to precharge delay between accesses to different bank groups
Total number of memory sub partition = 22
addr_dec_mask[CHIP]  = 0000000000000000 	high:64 low:0
addr_dec_mask[BK]    = 0000000000007080 	high:15 low:7
addr_dec_mask[ROW]   = 000000000fff8000 	high:28 low:15
addr_dec_mask[COL]   = 0000000000000f7f 	high:12 low:0
addr_dec_mask[BURST] = 000000000000001f 	high:5 low:0
sub_partition_id_mask = 0000000000000080
GPGPU-Sim uArch: clock freqs: 1481000000.000000:2962000000.000000:1481000000.000000:2750000000.000000
GPGPU-Sim uArch: clock periods: 0.00000000067521944632:0.00000000033760972316:0.00000000067521944632:0.00000000036363636364
*** Initializing Memory Statistics ***
GPGPU-Sim uArch: interconnect node map (shaderID+MemID to icntID)
GPGPU-Sim uArch: Memory nodes ID start from index: 28
GPGPU-Sim uArch:    0   1   2   3   4   5   6
GPGPU-Sim uArch:    7   8   9  10  11  12  13
GPGPU-Sim uArch:   14  15  16  17  18  19  20
GPGPU-Sim uArch:   21  22  23  24  25  26  27
GPGPU-Sim uArch:   28  29  30  31  32  33  34
GPGPU-Sim uArch:   35  36  37  38  39  40  41
GPGPU-Sim uArch:   42  43  44  45  46  47  48
GPGPU-Sim uArch:   49
GPGPU-Sim uArch: interconnect node reverse map (icntID to shaderID+MemID)
GPGPU-Sim uArch: Memory nodes start from ID: 28
GPGPU-Sim uArch:    0   1   2   3   4   5   6
GPGPU-Sim uArch:    7   8   9  10  11  12  13
GPGPU-Sim uArch:   14  15  16  17  18  19  20
GPGPU-Sim uArch:   21  22  23  24  25  26  27
GPGPU-Sim uArch:   28  29  30  31  32  33  34
GPGPU-Sim uArch:   35  36  37  38  39  40  41
GPGPU-Sim uArch:   42  43  44  45  46  47  48
GPGPU-Sim uArch:   49
255f433d4d83335a08ae4cd34356f32a  /home/gpuser/Documents/gpgpu-sim_UVM_unmanged_managed_withhardware/benchmarks/Managed/stencil/main
GPGPU-Sim uArch: performance model initialization complete.
GPGPU-Sim PTX: __cudaRegisterFatBinary, fat_cubin_handle = 1, filename=default
self exe links to: /home/gpuser/Documents/gpgpu-sim_UVM_unmanged_managed_withhardware/benchmarks/Managed/stencil/main
Running md5sum using "md5sum /home/gpuser/Documents/gpgpu-sim_UVM_unmanged_managed_withhardware/benchmarks/Managed/stencil/main "
Parsing file _cuobjdump_complete_output_uN18DQ
######### cuobjdump parser ########
## Adding new section ELF
Adding arch: sm_20
Adding identifier: default
## Adding new section ELF
Adding arch: sm_20
Adding identifier: default
## Adding new section PTX
Adding ptx filename: _cuobjdump_1.ptx
Adding arch: sm_20
Adding identifier: default
## Adding new section ELF
Adding arch: sm_20
Adding identifier: default
## Adding new section PTX
Adding ptx filename: _cuobjdump_2.ptx
Adding arch: sm_20
Adding identifier: default
Done parsing!!!
GPGPU-Sim PTX: __cudaRegisterFatBinary, fat_cubin_handle = 2, filename=default
GPGPU-Sim PTX: __cudaRegisterFunction _Z24block2D_hybrid_coarsen_xffPfS_iii : hostFun 0x0x401496, fat_cubin_handle = 2
GPGPU-Sim PTX: allocating shared region for "sh_A0" from 0x0 to 0x0 (shared memory space)
GPGPU-Sim PTX: instruction assembly for function '_Z24block2D_hybrid_coarsen_xffPfS_iii'...   done.
GPGPU-Sim PTX: finding reconvergence points for '_Z24block2D_hybrid_coarsen_xffPfS_iii'...
GPGPU-Sim PTX: Finding dominators for '_Z24block2D_hybrid_coarsen_xffPfS_iii'...
GPGPU-Sim PTX: Finding immediate dominators for '_Z24block2D_hybrid_coarsen_xffPfS_iii'...
GPGPU-Sim PTX: Finding postdominators for '_Z24block2D_hybrid_coarsen_xffPfS_iii'...
GPGPU-Sim PTX: Finding immediate postdominators for '_Z24block2D_hybrid_coarsen_xffPfS_iii'...
GPGPU-Sim PTX: pre-decoding instructions for '_Z24block2D_hybrid_coarsen_xffPfS_iii'...
GPGPU-Sim PTX: reconvergence points for _Z24block2D_hybrid_coarsen_xffPfS_iii...
GPGPU-Sim PTX:  1 (potential) branch divergence @  PC=0x170 (_2.ptx:82) @!%p13 bra BB0_2;
GPGPU-Sim PTX:    immediate post dominator      @  PC=0x200 (_2.ptx:104) mov.f32 %f64, %f69;
GPGPU-Sim PTX:  2 (potential) branch divergence @  PC=0x178 (_2.ptx:83) bra.uni BB0_1;
GPGPU-Sim PTX:    immediate post dominator      @  PC=0x180 (_2.ptx:86) mad.lo.s32 %r33, %r3, %r6, %r1;
GPGPU-Sim PTX:  3 (potential) branch divergence @  PC=0x228 (_2.ptx:109) @!%p16 bra BB0_4;
GPGPU-Sim PTX:    immediate post dominator      @  PC=0x2b0 (_2.ptx:130) mov.f32 %f67, %f68;
GPGPU-Sim PTX:  4 (potential) branch divergence @  PC=0x230 (_2.ptx:110) bra.uni BB0_3;
GPGPU-Sim PTX:    immediate post dominator      @  PC=0x238 (_2.ptx:113) mad.lo.s32 %r58, %r3, %r6, %r2;
GPGPU-Sim PTX:  5 (potential) branch divergence @  PC=0x2d0 (_2.ptx:134) @%p17 bra BB0_33;
GPGPU-Sim PTX:    immediate post dominator      @  PC=0x868 (_2.ptx:370) ret;
GPGPU-Sim PTX:  6 (potential) branch divergence @  PC=0x300 (_2.ptx:143) @!%p13 bra BB0_8;
GPGPU-Sim PTX:    immediate post dominator      @  PC=0x348 (_2.ptx:156) @!%p5 bra BB0_19;
GPGPU-Sim PTX:  7 (potential) branch divergence @  PC=0x308 (_2.ptx:144) bra.uni BB0_7;
GPGPU-Sim PTX:    immediate post dominator      @  PC=0x310 (_2.ptx:147) add.s32 %r75, %r273, 1;
GPGPU-Sim PTX:  8 (potential) branch divergence @  PC=0x348 (_2.ptx:156) @!%p5 bra BB0_19;
GPGPU-Sim PTX:    immediate post dominator      @  PC=0x590 (_2.ptx:251) @!%p16 bra BB0_21;
GPGPU-Sim PTX:  9 (potential) branch divergence @  PC=0x350 (_2.ptx:157) bra.uni BB0_9;
GPGPU-Sim PTX:    immediate post dominator      @  PC=0x358 (_2.ptx:160) add.s32 %r89, %r13, -1;
GPGPU-Sim PTX: 10 (potential) branch divergence @  PC=0x368 (_2.ptx:162) @%p21 bra BB0_11;
GPGPU-Sim PTX:    immediate post dominator      @  PC=0x3e8 (_2.ptx:184) setp.eq.s32%p22, %r15, 0;
GPGPU-Sim PTX: 11 (potential) branch divergence @  PC=0x370 (_2.ptx:163) bra.uni BB0_10;
GPGPU-Sim PTX:    immediate post dominator      @  PC=0x3b8 (_2.ptx:176) shl.b32 %r92, %r11, 1;
GPGPU-Sim PTX: 12 (potential) branch divergence @  PC=0x3b0 (_2.ptx:173) bra.uni BB0_12;
GPGPU-Sim PTX:    immediate post dominator      @  PC=0x3e8 (_2.ptx:184) setp.eq.s32%p22, %r15, 0;
GPGPU-Sim PTX: 13 (potential) branch divergence @  PC=0x3f0 (_2.ptx:185) @%p22 bra BB0_14;
GPGPU-Sim PTX:    immediate post dominator      @  PC=0x470 (_2.ptx:207) setp.eq.s32%p23, %r12, 0;
GPGPU-Sim PTX: 14 (potential) branch divergence @  PC=0x3f8 (_2.ptx:186) bra.uni BB0_13;
GPGPU-Sim PTX:    immediate post dominator      @  PC=0x440 (_2.ptx:199) shl.b32 %r111, %r11, 1;
GPGPU-Sim PTX: 15 (potential) branch divergence @  PC=0x438 (_2.ptx:196) bra.uni BB0_15;
GPGPU-Sim PTX:    immediate post dominator      @  PC=0x470 (_2.ptx:207) setp.eq.s32%p23, %r12, 0;
GPGPU-Sim PTX: 16 (potential) branch divergence @  PC=0x478 (_2.ptx:208) @%p23 bra BB0_17;
GPGPU-Sim PTX:    immediate post dominator      @  PC=0x4f0 (_2.ptx:229) mad.lo.s32 %r149, %r273, %r7, %r3;
GPGPU-Sim PTX: 17 (potential) branch divergence @  PC=0x480 (_2.ptx:209) bra.uni BB0_16;
GPGPU-Sim PTX:    immediate post dominator      @  PC=0x4c8 (_2.ptx:222) shl.b32 %r129, %r11, 1;
GPGPU-Sim PTX: 18 (potential) branch divergence @  PC=0x4c0 (_2.ptx:219) bra.uni BB0_18;
GPGPU-Sim PTX:    immediate post dominator      @  PC=0x4f0 (_2.ptx:229) mad.lo.s32 %r149, %r273, %r7, %r3;
GPGPU-Sim PTX: 19 (potential) branch divergence @  PC=0x590 (_2.ptx:251) @!%p16 bra BB0_21;
GPGPU-Sim PTX:    immediate post dominator      @  PC=0x5d8 (_2.ptx:264) @!%p4 bra BB0_32;
GPGPU-Sim PTX: 20 (potential) branch divergence @  PC=0x598 (_2.ptx:252) bra.uni BB0_20;
GPGPU-Sim PTX:    immediate post dominator      @  PC=0x5a0 (_2.ptx:255) add.s32 %r168, %r273, 1;
GPGPU-Sim PTX: 21 (potential) branch divergence @  PC=0x5d8 (_2.ptx:264) @!%p4 bra BB0_32;
GPGPU-Sim PTX:    immediate post dominator      @  PC=0x820 (_2.ptx:359) bar.sync 0;
GPGPU-Sim PTX: 22 (potential) branch divergence @  PC=0x5e0 (_2.ptx:265) bra.uni BB0_22;
GPGPU-Sim PTX:    immediate post dominator      @  PC=0x5e8 (_2.ptx:268) add.s32 %r183, %r13, -1;
GPGPU-Sim PTX: 23 (potential) branch divergence @  PC=0x5f8 (_2.ptx:270) @%p27 bra BB0_24;
GPGPU-Sim PTX:    immediate post dominator      @  PC=0x678 (_2.ptx:292) setp.eq.s32%p28, %r15, 0;
GPGPU-Sim PTX: 24 (potential) branch divergence @  PC=0x600 (_2.ptx:271) bra.uni BB0_23;
GPGPU-Sim PTX:    immediate post dominator      @  PC=0x648 (_2.ptx:284) shl.b32 %r186, %r11, 1;
GPGPU-Sim PTX: 25 (potential) branch divergence @  PC=0x640 (_2.ptx:281) bra.uni BB0_25;
GPGPU-Sim PTX:    immediate post dominator      @  PC=0x678 (_2.ptx:292) setp.eq.s32%p28, %r15, 0;
GPGPU-Sim PTX: 26 (potential) branch divergence @  PC=0x680 (_2.ptx:293) @%p28 bra BB0_27;
GPGPU-Sim PTX:    immediate post dominator      @  PC=0x700 (_2.ptx:315) shl.b32 %r228, %r11, 1;
GPGPU-Sim PTX: 27 (potential) branch divergence @  PC=0x688 (_2.ptx:294) bra.uni BB0_26;
GPGPU-Sim PTX:    immediate post dominator      @  PC=0x6d0 (_2.ptx:307) shl.b32 %r207, %r11, 1;
GPGPU-Sim PTX: 28 (potential) branch divergence @  PC=0x6c8 (_2.ptx:304) bra.uni BB0_28;
GPGPU-Sim PTX:    immediate post dominator      @  PC=0x700 (_2.ptx:315) shl.b32 %r228, %r11, 1;
GPGPU-Sim PTX: 29 (potential) branch divergence @  PC=0x718 (_2.ptx:318) @%p29 bra BB0_30;
GPGPU-Sim PTX:    immediate post dominator      @  PC=0x788 (_2.ptx:338) mad.lo.s32 %r253, %r273, %r7, %r3;
GPGPU-Sim PTX: 30 (potential) branch divergence @  PC=0x720 (_2.ptx:319) bra.uni BB0_29;
GPGPU-Sim PTX:    immediate post dominator      @  PC=0x768 (_2.ptx:332) mad.lo.s32 %r235, %r228, %r15, %r19;
GPGPU-Sim PTX: 31 (potential) branch divergence @  PC=0x760 (_2.ptx:329) bra.uni BB0_31;
GPGPU-Sim PTX:    immediate post dominator      @  PC=0x788 (_2.ptx:338) mad.lo.s32 %r253, %r273, %r7, %r3;
GPGPU-Sim PTX: 32 (potential) branch divergence @  PC=0x860 (_2.ptx:367) @%p30 bra BB0_6;
GPGPU-Sim PTX:    immediate post dominator      @  PC=0x868 (_2.ptx:370) ret;
GPGPU-Sim PTX: ... end of reconvergence points for _Z24block2D_hybrid_coarsen_xffPfS_iii
GPGPU-Sim PTX: ... done pre-decoding instructions for '_Z24block2D_hybrid_coarsen_xffPfS_iii'.
GPGPU-Sim PTX: finished parsing EMBEDDED .ptx file _2.ptx
Adding _cuobjdump_1.ptx with cubin handle 2
GPGPU-Sim PTX: extracting embedded .ptx to temporary file "_ptx_f9s1sr"
Running: cat _ptx_f9s1sr | sed 's/.version 1.5/.version 1.4/' | sed 's/, texmode_independent//' | sed 's/\(\.extern \.const\[1\] .b8 \w\+\)\[\]/\1\[1\]/' | sed 's/const\[.\]/const\[0\]/g' > _ptx2_Sn4Vh2
GPGPU-Sim PTX: generating ptxinfo using "$CUDA_INSTALL_PATH/bin/ptxas --gpu-name=sm_20 -v _ptx2_Sn4Vh2 --output-file  /dev/null 2> _ptx_f9s1srinfo"
GPGPU-Sim PTX: Kernel '_Z24block2D_hybrid_coarsen_xffPfS_iii' : regs=20, lmem=0, smem=0, cmem=68
GPGPU-Sim PTX: removing ptxinfo using "rm -f _ptx_f9s1sr _ptx2_Sn4Vh2 _ptx_f9s1srinfo"
GPGPU-Sim PTX: loading globals with explicit initializers... 
GPGPU-Sim PTX: finished loading globals (0 bytes total).
GPGPU-Sim PTX: loading constants with explicit initializers...  done.
CUDA accelerated 7 points stencil codes****
Original version by Li-Wen Chang <lchang20@illinois.edu> and I-Jui Sung<sung10@illinois.edu>
This version maintained by Chris Rodrigues  ***********

GPGPU-Sim PTX: cudaLaunch for 0x0x401496 (mode=performance simulation) on stream 0
GPGPU-Sim PTX: pushing kernel '_Z24block2D_hybrid_coarsen_xffPfS_iii' to stream 0, gridDim= (2,32,1) blockDim = (32,4,1) 
GPGPU-Sim uArch: Shader 1 bind to kernel 1 '_Z24block2D_hybrid_coarsen_xffPfS_iii'
GPGPU-Sim uArch: CTA/core = 16, limited by: threads
GPGPU-Sim uArch: Shader 2 bind to kernel 1 '_Z24block2D_hybrid_coarsen_xffPfS_iii'
GPGPU-Sim uArch: Shader 3 bind to kernel 1 '_Z24block2D_hybrid_coarsen_xffPfS_iii'
GPGPU-Sim uArch: Shader 4 bind to kernel 1 '_Z24block2D_hybrid_coarsen_xffPfS_iii'
GPGPU-Sim uArch: Shader 5 bind to kernel 1 '_Z24block2D_hybrid_coarsen_xffPfS_iii'
GPGPU-Sim uArch: Shader 6 bind to kernel 1 '_Z24block2D_hybrid_coarsen_xffPfS_iii'
GPGPU-Sim uArch: Shader 7 bind to kernel 1 '_Z24block2D_hybrid_coarsen_xffPfS_iii'
GPGPU-Sim uArch: Shader 8 bind to kernel 1 '_Z24block2D_hybrid_coarsen_xffPfS_iii'
GPGPU-Sim uArch: Shader 9 bind to kernel 1 '_Z24block2D_hybrid_coarsen_xffPfS_iii'
GPGPU-Sim uArch: Shader 10 bind to kernel 1 '_Z24block2D_hybrid_coarsen_xffPfS_iii'
GPGPU-Sim uArch: Shader 11 bind to kernel 1 '_Z24block2D_hybrid_coarsen_xffPfS_iii'
GPGPU-Sim uArch: Shader 12 bind to kernel 1 '_Z24block2D_hybrid_coarsen_xffPfS_iii'
GPGPU-Sim uArch: Shader 13 bind to kernel 1 '_Z24block2D_hybrid_coarsen_xffPfS_iii'
GPGPU-Sim uArch: Shader 14 bind to kernel 1 '_Z24block2D_hybrid_coarsen_xffPfS_iii'
GPGPU-Sim uArch: Shader 15 bind to kernel 1 '_Z24block2D_hybrid_coarsen_xffPfS_iii'
GPGPU-Sim uArch: Shader 16 bind to kernel 1 '_Z24block2D_hybrid_coarsen_xffPfS_iii'
GPGPU-Sim uArch: Shader 17 bind to kernel 1 '_Z24block2D_hybrid_coarsen_xffPfS_iii'
GPGPU-Sim uArch: Shader 18 bind to kernel 1 '_Z24block2D_hybrid_coarsen_xffPfS_iii'
GPGPU-Sim uArch: Shader 19 bind to kernel 1 '_Z24block2D_hybrid_coarsen_xffPfS_iii'
GPGPU-Sim uArch: Shader 20 bind to kernel 1 '_Z24block2D_hybrid_coarsen_xffPfS_iii'
GPGPU-Sim uArch: Shader 21 bind to kernel 1 '_Z24block2D_hybrid_coarsen_xffPfS_iii'
GPGPU-Sim uArch: Shader 22 bind to kernel 1 '_Z24block2D_hybrid_coarsen_xffPfS_iii'
GPGPU-Sim uArch: Shader 23 bind to kernel 1 '_Z24block2D_hybrid_coarsen_xffPfS_iii'
GPGPU-Sim uArch: Shader 24 bind to kernel 1 '_Z24block2D_hybrid_coarsen_xffPfS_iii'
GPGPU-Sim uArch: Shader 25 bind to kernel 1 '_Z24block2D_hybrid_coarsen_xffPfS_iii'
GPGPU-Sim uArch: Shader 26 bind to kernel 1 '_Z24block2D_hybrid_coarsen_xffPfS_iii'
GPGPU-Sim uArch: Shader 27 bind to kernel 1 '_Z24block2D_hybrid_coarsen_xffPfS_iii'
GPGPU-Sim uArch: Shader 0 bind to kernel 1 '_Z24block2D_hybrid_coarsen_xffPfS_iii'
Destroy streams for kernel 1: size 0
kernel_name = _Z24block2D_hybrid_coarsen_xffPfS_iii 
kernel_launch_uid = 1 
gpu_sim_cycle = 532004
gpu_sim_insn = 28848876
gpu_ipc =      54.2268
gpu_tot_sim_cycle = 754154
gpu_tot_sim_insn = 28848876
gpu_tot_ipc =      38.2533
gpu_tot_issued_cta = 64
max_total_param_size = 0
gpu_stall_dramfull = 88833
gpu_stall_icnt2sh    = 2176
partiton_reqs_in_parallel = 11615255
partiton_reqs_in_parallel_total    = 0
partiton_level_parallism =      21.8330
partiton_level_parallism_total  =      15.4017
partiton_reqs_in_parallel_util = 11615255
partiton_reqs_in_parallel_util_total    = 0
gpu_sim_cycle_parition_util = 530683
gpu_tot_sim_cycle_parition_util    = 0
partiton_level_parallism_util =      21.8874
partiton_level_parallism_util_total  =      21.8874
partiton_replys_in_parallel = 47008
partiton_replys_in_parallel_total    = 0
L2_BW  =       8.3751 GB/Sec
L2_BW_total  =       5.9081 GB/Sec
gpu_total_sim_rate=37224

========= Core cache stats =========
L1I_cache:
	L1I_total_cache_accesses = 579228
	L1I_total_cache_misses = 3182
	L1I_total_cache_miss_rate = 0.0055
	L1I_total_cache_pending_hits = 0
	L1I_total_cache_reservation_fails = 0
L1D_cache:
	L1D_cache_core[0]: Access = 0, Miss = 0, Miss_rate = -nan, Pending_hits = 0, Reservation_fails = 0
	L1D_cache_core[1]: Access = 0, Miss = 0, Miss_rate = -nan, Pending_hits = 0, Reservation_fails = 0
	L1D_cache_core[2]: Access = 0, Miss = 0, Miss_rate = -nan, Pending_hits = 0, Reservation_fails = 0
	L1D_cache_core[3]: Access = 0, Miss = 0, Miss_rate = -nan, Pending_hits = 0, Reservation_fails = 0
	L1D_cache_core[4]: Access = 0, Miss = 0, Miss_rate = -nan, Pending_hits = 0, Reservation_fails = 0
	L1D_cache_core[5]: Access = 0, Miss = 0, Miss_rate = -nan, Pending_hits = 0, Reservation_fails = 0
	L1D_cache_core[6]: Access = 0, Miss = 0, Miss_rate = -nan, Pending_hits = 0, Reservation_fails = 0
	L1D_cache_core[7]: Access = 0, Miss = 0, Miss_rate = -nan, Pending_hits = 0, Reservation_fails = 0
	L1D_cache_core[8]: Access = 0, Miss = 0, Miss_rate = -nan, Pending_hits = 0, Reservation_fails = 0
	L1D_cache_core[9]: Access = 0, Miss = 0, Miss_rate = -nan, Pending_hits = 0, Reservation_fails = 0
	L1D_cache_core[10]: Access = 0, Miss = 0, Miss_rate = -nan, Pending_hits = 0, Reservation_fails = 0
	L1D_cache_core[11]: Access = 0, Miss = 0, Miss_rate = -nan, Pending_hits = 0, Reservation_fails = 0
	L1D_cache_core[12]: Access = 0, Miss = 0, Miss_rate = -nan, Pending_hits = 0, Reservation_fails = 0
	L1D_cache_core[13]: Access = 0, Miss = 0, Miss_rate = -nan, Pending_hits = 0, Reservation_fails = 0
	L1D_cache_core[14]: Access = 0, Miss = 0, Miss_rate = -nan, Pending_hits = 0, Reservation_fails = 0
	L1D_cache_core[15]: Access = 0, Miss = 0, Miss_rate = -nan, Pending_hits = 0, Reservation_fails = 0
	L1D_cache_core[16]: Access = 0, Miss = 0, Miss_rate = -nan, Pending_hits = 0, Reservation_fails = 0
	L1D_cache_core[17]: Access = 0, Miss = 0, Miss_rate = -nan, Pending_hits = 0, Reservation_fails = 0
	L1D_cache_core[18]: Access = 0, Miss = 0, Miss_rate = -nan, Pending_hits = 0, Reservation_fails = 0
	L1D_cache_core[19]: Access = 0, Miss = 0, Miss_rate = -nan, Pending_hits = 0, Reservation_fails = 0
	L1D_cache_core[20]: Access = 0, Miss = 0, Miss_rate = -nan, Pending_hits = 0, Reservation_fails = 0
	L1D_cache_core[21]: Access = 0, Miss = 0, Miss_rate = -nan, Pending_hits = 0, Reservation_fails = 0
	L1D_cache_core[22]: Access = 0, Miss = 0, Miss_rate = -nan, Pending_hits = 0, Reservation_fails = 0
	L1D_cache_core[23]: Access = 0, Miss = 0, Miss_rate = -nan, Pending_hits = 0, Reservation_fails = 0
	L1D_cache_core[24]: Access = 0, Miss = 0, Miss_rate = -nan, Pending_hits = 0, Reservation_fails = 0
	L1D_cache_core[25]: Access = 0, Miss = 0, Miss_rate = -nan, Pending_hits = 0, Reservation_fails = 0
	L1D_cache_core[26]: Access = 0, Miss = 0, Miss_rate = -nan, Pending_hits = 0, Reservation_fails = 0
	L1D_cache_core[27]: Access = 0, Miss = 0, Miss_rate = -nan, Pending_hits = 0, Reservation_fails = 0
	L1D_total_cache_accesses = 0
	L1D_total_cache_misses = 0
	L1D_total_cache_pending_hits = 0
	L1D_total_cache_reservation_fails = 0
	L1D_cache_data_port_util = 0.000
	L1D_cache_fill_port_util = 0.000
L1C_cache:
	L1C_total_cache_accesses = 1792
	L1C_total_cache_misses = 1632
	L1C_total_cache_miss_rate = 0.9107
	L1C_total_cache_pending_hits = 0
	L1C_total_cache_reservation_fails = 1444
L1T_cache:
	L1T_total_cache_accesses = 0
	L1T_total_cache_misses = 0
	L1T_total_cache_pending_hits = 0
	L1T_total_cache_reservation_fails = 0

Total_core_cache_stats:
	Total_core_cache_stats_breakdown[GLOBAL_ACC_R][HIT] = 0
	Total_core_cache_stats_breakdown[GLOBAL_ACC_R][HIT_RESERVED] = 0
	Total_core_cache_stats_breakdown[GLOBAL_ACC_R][MISS] = 0
	Total_core_cache_stats_breakdown[GLOBAL_ACC_R][RESERVATION_FAIL] = 0
	Total_core_cache_stats_breakdown[LOCAL_ACC_R][HIT] = 0
	Total_core_cache_stats_breakdown[LOCAL_ACC_R][HIT_RESERVED] = 0
	Total_core_cache_stats_breakdown[LOCAL_ACC_R][MISS] = 0
	Total_core_cache_stats_breakdown[LOCAL_ACC_R][RESERVATION_FAIL] = 0
	Total_core_cache_stats_breakdown[CONST_ACC_R][HIT] = 160
	Total_core_cache_stats_breakdown[CONST_ACC_R][HIT_RESERVED] = 0
	Total_core_cache_stats_breakdown[CONST_ACC_R][MISS] = 1632
	Total_core_cache_stats_breakdown[CONST_ACC_R][RESERVATION_FAIL] = 1444
	Total_core_cache_stats_breakdown[TEXTURE_ACC_R][HIT] = 0
	Total_core_cache_stats_breakdown[TEXTURE_ACC_R][HIT_RESERVED] = 0
	Total_core_cache_stats_breakdown[TEXTURE_ACC_R][MISS] = 0
	Total_core_cache_stats_breakdown[TEXTURE_ACC_R][RESERVATION_FAIL] = 0
	Total_core_cache_stats_breakdown[GLOBAL_ACC_W][HIT] = 0
	Total_core_cache_stats_breakdown[GLOBAL_ACC_W][HIT_RESERVED] = 0
	Total_core_cache_stats_breakdown[GLOBAL_ACC_W][MISS] = 0
	Total_core_cache_stats_breakdown[GLOBAL_ACC_W][RESERVATION_FAIL] = 0
	Total_core_cache_stats_breakdown[LOCAL_ACC_W][HIT] = 0
	Total_core_cache_stats_breakdown[LOCAL_ACC_W][HIT_RESERVED] = 0
	Total_core_cache_stats_breakdown[LOCAL_ACC_W][MISS] = 0
	Total_core_cache_stats_breakdown[LOCAL_ACC_W][RESERVATION_FAIL] = 0
	Total_core_cache_stats_breakdown[L1_WRBK_ACC][HIT] = 0
	Total_core_cache_stats_breakdown[L1_WRBK_ACC][HIT_RESERVED] = 0
	Total_core_cache_stats_breakdown[L1_WRBK_ACC][MISS] = 0
	Total_core_cache_stats_breakdown[L1_WRBK_ACC][RESERVATION_FAIL] = 0
	Total_core_cache_stats_breakdown[L2_WRBK_ACC][HIT] = 0
	Total_core_cache_stats_breakdown[L2_WRBK_ACC][HIT_RESERVED] = 0
	Total_core_cache_stats_breakdown[L2_WRBK_ACC][MISS] = 0
	Total_core_cache_stats_breakdown[L2_WRBK_ACC][RESERVATION_FAIL] = 0
	Total_core_cache_stats_breakdown[INST_ACC_R][HIT] = 576046
	Total_core_cache_stats_breakdown[INST_ACC_R][HIT_RESERVED] = 0
	Total_core_cache_stats_breakdown[INST_ACC_R][MISS] = 3182
	Total_core_cache_stats_breakdown[INST_ACC_R][RESERVATION_FAIL] = 0
	Total_core_cache_stats_breakdown[L1_WR_ALLOC_R][HIT] = 0
	Total_core_cache_stats_breakdown[L1_WR_ALLOC_R][HIT_RESERVED] = 0
	Total_core_cache_stats_breakdown[L1_WR_ALLOC_R][MISS] = 0
	Total_core_cache_stats_breakdown[L1_WR_ALLOC_R][RESERVATION_FAIL] = 0
	Total_core_cache_stats_breakdown[L2_WR_ALLOC_R][HIT] = 0
	Total_core_cache_stats_breakdown[L2_WR_ALLOC_R][HIT_RESERVED] = 0
	Total_core_cache_stats_breakdown[L2_WR_ALLOC_R][MISS] = 0
	Total_core_cache_stats_breakdown[L2_WR_ALLOC_R][RESERVATION_FAIL] = 0
	Total_core_cache_stats_breakdown[CONST_ACC_R][TOTAL_ACCESS] = 1792
	Total_core_cache_stats_breakdown[INST_ACC_R][TOTAL_ACCESS] = 579228
Shader 0 warp_id issue ditsribution:
warp_id:
0, 1, 2, 3, 4, 5, 6, 7, 
distro:
4828, 4640, 4648, 4816, 4827, 4645, 4648, 4819, 
gpgpu_n_tot_thrd_icount = 33319424
gpgpu_n_tot_w_icount = 1041232
gpgpu_n_stall_shd_mem = 168178
gpgpu_n_mem_read_local = 0
gpgpu_n_mem_write_local = 0
gpgpu_n_mem_read_global = 31384
gpgpu_n_mem_write_global = 15120
gpgpu_n_mem_texture = 0
gpgpu_n_mem_const = 28
gpgpu_n_load_insn  = 766208
gpgpu_n_store_insn = 476280
gpgpu_n_shmem_insn = 3155288
gpgpu_n_tex_insn = 0
gpgpu_n_const_mem_insn = 0
gpgpu_n_param_mem_insn = 57344
gpgpu_n_shmem_bkconflict = 0
gpgpu_n_cache_bkconflict = 0
gpgpu_n_intrawarp_mshr_merge = 0
gpgpu_n_cmem_portconflict = 1444
gpgpu_stall_shd_mem[c_mem][bk_conf] = 1444
gpgpu_stall_shd_mem[c_mem][mshr_rc] = 0
gpgpu_stall_shd_mem[c_mem][icnt_rc] = 0
gpgpu_stall_shd_mem[c_mem][data_port_stall] = 0
gpgpu_stall_shd_mem[t_mem][mshr_rc] = 0
gpgpu_stall_shd_mem[t_mem][icnt_rc] = 0
gpgpu_stall_shd_mem[t_mem][data_port_stall] = 0
gpgpu_stall_shd_mem[s_mem][bk_conf] = 0
gpgpu_stall_shd_mem[gl_mem][bk_conf] = 0
gpgpu_stall_shd_mem[gl_mem][coal_stall] = 4
gpgpu_stall_shd_mem[gl_mem][data_port_stall] = 0
gpgpu_stall_shd_mem[g_mem_ld][mshr_rc] = 0
gpgpu_stall_shd_mem[g_mem_ld][icnt_rc] = 166730
gpgpu_stall_shd_mem[g_mem_ld][wb_icnt_rc] = 0
gpgpu_stall_shd_mem[g_mem_ld][wb_rsrv_fail] = 0
gpgpu_stall_shd_mem[g_mem_st][mshr_rc] = 0
gpgpu_stall_shd_mem[g_mem_st][icnt_rc] = 0
gpgpu_stall_shd_mem[g_mem_st][wb_icnt_rc] = 0
gpgpu_stall_shd_mem[g_mem_st][wb_rsrv_fail] = 0
gpgpu_stall_shd_mem[l_mem_ld][mshr_rc] = 0
gpgpu_stall_shd_mem[l_mem_ld][icnt_rc] = 0
gpgpu_stall_shd_mem[l_mem_ld][wb_icnt_rc] = 0
gpgpu_stall_shd_mem[l_mem_ld][wb_rsrv_fail] = 0
gpgpu_stall_shd_mem[l_mem_st][mshr_rc] = 0
gpgpu_stall_shd_mem[l_mem_st][icnt_rc] = 0
gpgpu_stall_shd_mem[l_mem_ld][wb_icnt_rc] = 0
gpgpu_stall_shd_mem[l_mem_ld][wb_rsrv_fail] = 0
gpu_reg_bank_conflict_stalls = 0
Warp Occupancy Distribution:
Stall:31991	W0_Idle:6426202	W0_Scoreboard:22433719	W1:60480	W2:0	W3:0	W4:0	W5:0	W6:0	W7:0	W8:0	W9:0	W10:0	W11:0	W12:0	W13:0	W14:0	W15:0	W16:0	W17:0	W18:0	W19:0	W20:0	W21:0	W22:0	W23:0	W24:0	W25:0	W26:0	W27:0	W28:0	W29:0	W30:0	W31:408180	W32:572572
traffic_breakdown_coretomem[CONST_ACC_R] = 224 {8:28,}
traffic_breakdown_coretomem[GLOBAL_ACC_R] = 251072 {8:31384,}
traffic_breakdown_coretomem[GLOBAL_ACC_W] = 2056320 {136:15120,}
traffic_breakdown_coretomem[INST_ACC_R] = 3808 {8:476,}
traffic_breakdown_memtocore[CONST_ACC_R] = 2016 {72:28,}
traffic_breakdown_memtocore[GLOBAL_ACC_R] = 3542464 {40:7560,136:23824,}
traffic_breakdown_memtocore[GLOBAL_ACC_W] = 120960 {8:15120,}
traffic_breakdown_memtocore[INST_ACC_R] = 64736 {136:476,}
maxmrqlatency = 1151 
maxdqlatency = 0 
maxmflatency = 180329 
averagemflatency = 25950 
max_icnt2mem_latency = 180066 
max_icnt2sh_latency = 754153 
mrq_lat_table:14874 	1134 	810 	1475 	1971 	2905 	3778 	6295 	9724 	3670 	6 	0 	0 	0 	0 	0 	0 	0 	0 	0 	0 	0 	0 	0 	0 	0 	0 	0 	0 	0 	0 	0 	
dq_lat_table:0 	0 	0 	0 	0 	0 	0 	0 	0 	0 	0 	0 	0 	0 	0 	0 	0 	0 	0 	0 	0 	0 	0 	0 	0 	0 	0 	0 	0 	0 	0 	0 	
mf_lat_table:0 	0 	0 	0 	0 	0 	0 	22069 	9352 	373 	0 	30 	130 	815 	1943 	4288 	7290 	242 	0 	0 	0 	0 	0 	0 	0 	0 	0 	0 	0 	0 	0 	0 	
icnt2mem_lat_table:0 	0 	22577 	188 	24 	0 	9481 	0 	0 	
GPGPU-Sim PTX: cudaLaunch for 0x0x401496 (mode=performance simulation) on stream 0
GPGPU-Sim PTX: pushing kernel '_Z24block2D_hybrid_coarsen_xffPfS_iii' to stream 0, gridDim= (2,32,1) blockDim = (32,4,1) 
0 	7 	23 	130 	1015 	1743 	4288 	7290 	242 	0 	0 	0 	0 	0 	0 	
icnt2sh_lat_table:0 	0 	25567 	5699 	146 	0 	0 	0 	0 	0 	0 	0 	0 	0 	0 	0 	0 	0 	7084 	8036 	0 	0 	0 	0 	
mf_lat_pw_table:0 	0 	0 	0 	0 	0 	0 	84 	10 	1 	2 	1 	2 	5 	10 	10 	14 	1 	0 	0 	0 	0 	0 	0 	0 	0 	0 	0 	0 	0 	0 	0 	
maximum concurrent accesses to same row:
dram[0]:        32        32        32        32        32        32        32        32        32        32        32        32        32        32        32        32 
dram[1]:        32        32        32        32        32        32        32        32        32        32        32        32        32        32        32        32 
dram[2]:        32        32        32        32        32        32        32        32        32        32        32        32        32        32        32        32 
dram[3]:        32        32        32        32        32        32        32        32        32        32        32        32        32        32        32        32 
dram[4]:        32        32        32        32        32        32        32        32        32        32        32        32        32        32        32        32 
dram[5]:        32        32        32        32        32        32        32        32        32        32        32        32        32        32        32        32 
dram[6]:        32        32        32        32        32        32        32        32        32        32        32        32        32        32        32        32 
dram[7]:        32        32        32        32        32        32        32        32        32        32        32        32        32        32        32        32 
dram[8]:        32        32        32        32        32        32        32        32        32        32        32        32        32        32        32        32 
dram[9]:        32        32        32        32        32        32        32        32        32        32        32        32        32        32        32        32 
dram[10]:        32        32        32        32        32        32        32        32        32        32        32        32        32        32        32        32 
maximum service time to same row:
dram[0]:    123431    123560    124319    124819    124772    125176    124163    124472    125088    125345    122968    122864    122815    123257    123678    124113 
dram[1]:    123450    123471    124361    124754    124775    125187    124181    124511    125012    125317    122920    122838    122800    123255    123615    123970 
dram[2]:    123526    123936    124368    124484    124803    125195    124164    124471    125025    125300    122953    122906    122800    123280    123684    124130 
dram[3]:    123425    123838    124378    124656    124778    125185    124153    124471    125089    125326    122943    122874    122852    123319    123564    124027 
dram[4]:    123434    123874    124361    124422    124794    125215    124146    124508    125104    125372    123058    123122    122864    123370    123763    124185 
dram[5]:    123505    123906    124428    124853    124852    125179    124177    124482    125062    125337    122960    123353    122858    123286    123660    123987 
dram[6]:    123612    124003    124473    124904    124945    125323    124165    124460    125065    125297    123081    123634    122875    122822    123749    124144 
dram[7]:    123521    123961    124340    124812    124826    124962    124195    124496    125105    125390    122961    122904    122876    122828    123659    124040 
dram[8]:    123610    124010    124507    124940    124925    125342    124162    124522    125003    125279    123042    123133    122795    122757    123548    123945 
dram[9]:    123615    123928    124358    124716    124772    125171    124178    124476    125066    125357    122947    122898    122830    122738    123605    123905 
dram[10]:    123611    123963    124501    124940    124959    125357    124159    124441    124971    125288    123031    123092    122801    123188    123581    123734 
average row accesses per activate:
dram[0]: 18.866667 21.692308 19.428572 19.428572 22.727272 22.727272 22.727272 22.727272 22.363636 22.363636 15.125000 15.125000 24.000000 24.000000 22.230770 22.230770 
dram[1]: 18.799999 18.799999 19.000000 19.000000 23.272728 23.272728 22.727272 22.727272 22.363636 22.363636 15.187500 15.187500 24.000000 24.000000 20.642857 24.000000 
dram[2]: 19.200001 22.153847 19.000000 19.000000 23.272728 23.272728 22.727272 22.727272 22.363636 22.363636 15.187500 15.187500 24.000000 24.000000 23.500000 23.500000 
dram[3]: 19.200001 19.200001 16.625000 16.625000 23.272728 23.272728 22.727272 22.727272 22.363636 22.363636 15.187500 15.187500 24.000000 24.000000 23.500000 20.142857 
dram[4]: 19.200001 22.153847 19.000000 19.000000 22.909090 22.909090 23.272728 23.272728 22.363636 22.363636 15.187500 15.187500 24.000000 24.000000 21.769230 21.769230 
dram[5]: 18.799999 21.692308 16.875000 16.875000 22.909090 22.909090 23.272728 23.272728 22.363636 22.363636 15.187500 15.187500 24.000000 24.000000 21.769230 21.769230 
dram[6]: 18.799999 18.799999 19.285715 19.285715 22.909090 22.909090 23.272728 23.272728 22.363636 22.363636 15.187500 15.187500 23.500000 23.500000 20.642857 22.230770 
dram[7]: 18.799999 21.692308 16.875000 15.000000 22.909090 22.909090 23.272728 23.272728 22.000000 22.000000 15.562500 15.562500 23.500000 23.500000 20.642857 20.642857 
dram[8]: 21.692308 21.692308 16.875000 19.285715 22.727272 22.727272 23.272728 23.272728 22.000000 22.000000 15.562500 15.562500 23.500000 23.500000 20.642857 20.642857 
dram[9]: 19.200001 22.153847 19.285715 16.875000 22.727272 22.727272 23.272728 23.272728 21.909090 21.909090 15.562500 15.562500 23.500000 23.500000 21.769230 20.214285 
dram[10]: 22.153847 22.153847 16.875000 16.875000 22.727272 22.727272 23.272728 23.272728 21.909090 21.909090 15.312500 15.312500 24.000000 24.000000 21.769230 21.769230 
average row locality = 46642/2272 = 20.529049
number of total memory accesses made:
dram[0]:         0         0         0         0         0         0         0         0         0         0         0         0         0         0         0         0 
dram[1]:         0         0         0         0         0         0         0         0         0         0         0         0         0         0         0         0 
dram[2]:         0         0         0         0         0         0         0         0         0         0         0         0         0         0         0         0 
dram[3]:         0         0         0         0         0         0         0         0         0         0         0         0         0         0         0         0 
dram[4]:         0         0         0         0         0         0         0         0         0         0         0         0         0         0         0         0 
dram[5]:         0         0         0         0         0         0         0         0         0         0         0         0         0         0         0         0 
dram[6]:         0         0         0         0         0         0         0         0         0         0         0         0         0         0         0         0 
dram[7]:         0         0         0         0         0         0         0         0         0         0         0         0         0         0         0         0 
dram[8]:         0         0         0         0         0         0         0         0         0         0         0         0         0         0         0         0 
dram[9]:         0         0         0         0         0         0         0         0         0         0         0         0         0         0         0         0 
dram[10]:         0         0         0         0         0         0         0         0         0         0         0         0         0         0         0         0 
total accesses: 0
min_bank_accesses = 0!
min_chip_accesses = 0!
number of total read accesses:
dram[0]:       190       189       184       184       173       173       173       173       166       166       162       162       192       192       193       193 
dram[1]:       189       189       181       181       176       176       173       173       166       166       163       163       192       192       193       192 
dram[2]:       192       192       181       181       176       176       173       173       166       166       163       163       192       192       189       189 
dram[3]:       192       192       181       181       176       176       173       173       166       166       163       163       192       192       189       189 
dram[4]:       192       192       181       181       174       174       176       176       166       166       163       163       192       192       190       190 
dram[5]:       189       189       183       183       174       174       176       176       166       166       163       163       192       192       190       190 
dram[6]:       189       189       183       183       174       174       176       176       166       166       163       163       189       189       193       193 
dram[7]:       189       189       183       183       174       174       176       176       164       164       166       166       189       189       193       193 
dram[8]:       189       189       183       183       173       173       176       176       164       164       166       166       189       189       193       193 
dram[9]:       192       192       183       183       173       173       176       176       163       163       166       166       189       189       190       190 
dram[10]:       192       192       183       183       173       173       176       176       163       163       164       164       192       192       190       190 
total reads: 31522
bank skew: 193/162 = 1.19
chip skew: 2868/2864 = 1.00
number of total write accesses:
dram[0]:        93        93        88        88        77        77        77        77        80        80        80        80        96        96        96        96 
dram[1]:        93        93        85        85        80        80        77        77        80        80        80        80        96        96        96        96 
dram[2]:        96        96        85        85        80        80        77        77        80        80        80        80        96        96        93        93 
dram[3]:        96        96        85        85        80        80        77        77        80        80        80        80        96        96        93        93 
dram[4]:        96        96        85        85        78        78        80        80        80        80        80        80        96        96        93        93 
dram[5]:        93        93        87        87        78        78        80        80        80        80        80        80        96        96        93        93 
dram[6]:        93        93        87        87        78        78        80        80        80        80        80        80        93        93        96        96 
dram[7]:        93        93        87        87        78        78        80        80        78        78        83        83        93        93        96        96 
dram[8]:        93        93        87        87        77        77        80        80        78        78        83        83        93        93        96        96 
dram[9]:        96        96        87        87        77        77        80        80        78        78        83        83        93        93        93        93 
dram[10]:        96        96        87        87        77        77        80        80        78        78        81        81        96        96        93        93 
total reads: 15120
bank skew: 96/77 = 1.25
chip skew: 1376/1374 = 1.00
average mf latency per bank:
dram[0]:      25114     23941     28003     23649     28020     20715     21419     20322     26245     22696     40099     28916     32415     25347     24946     23997
dram[1]:      25220     23877     27707     23287     27918     20739     21419     20345     26208     22669     39441     28809     32410     25349     24940     24084
dram[2]:      25522     24204     27723     23298     27905     20729     21506     20422     26204     22685     39460     28817     31972     25338     24877     23929
dram[3]:      25489     24208     27912     23482     27914     20737     21515     20438     26192     22659     39588     29165     32021     25347     24868     23911
dram[4]:      25483     24210     27911     23487     27551     20751     21546     20393     26214     22664     39603     29185     31991     25313     24793     23829
dram[5]:      25292     24005     27974     23422     27557     20764     21551     20401     26197     22653     39751     29309     32020     25357     24787     23835
dram[6]:      25290     23988     27962     23408     27359     20556     21547     20402     26202     22657     39722     29285     31645     25483     25006     24029
dram[7]:      25233     24006     27969     23415     27348     20560     21888     20515     25864     22262     39469     28927     31663     25501     25002     24005
dram[8]:      25236     24022     28612     23624     27524     20516     21894     20517     25869     22279     39477     28952     31438     25284     24989     24020
dram[9]:      25454     24235     28616     23635     27524     20501     21762     20491     25988     22381     39477     28931     31455     25287     24688     23695
dram[10]:      25466     24252     28377     23619     27500     20492     21775     20518     25985     22376     40674     29118     31634     25184     24694     23713
maximum mf latency per bank:
dram[0]:     124305    123830    123442    122917    122949    122213    121989    121681    122648    122163    180314    124431    180072    124498    123943    123670
dram[1]:     123768    123254    123728    123504    122708    122331    122475    122136    122358    121875    180301    124297    180103    124528    123896    123673
dram[2]:     124194    123824    123384    123010    122922    122238    122031    121880    122444    122252    180329    124388    180073    124453    123876    123555
dram[3]:     124458    123957    123796    123425    122698    122450    122311    121980    122204    121882    180301    124286    180106    124098    123855    123530
dram[4]:     124431    123964    123442    123031    122780    122370    122407    121868    121964    121672    180323    124214    180066    124410    123893    123568
dram[5]:     124140    123872    123792    123331    122730    122397    122136    121951    122289    121969    180306    124276    180104    124390    123781    123461
dram[6]:     123661    123108    123630    123295    123024    122388    122276    121784    122072    121693    180322    124240    180088    178722    124058    123914
dram[7]:     124079    123703    123785    123461    122552    122178    122271    121911    122015    121975    180311    124423    180113    179595    123906    123432
dram[8]:     123652    123198    123595    123224    122820    122509    122312    121966    121834    121460    180316    124314    180090    124251    124000    123481
dram[9]:     124271    123935    123273    122855    122555    122223    122034    121548    122276    122073    180324    124343    180103    124016    123883    123611
dram[10]:     123878    123437    123664    123311    122895    122741    122051    121856    121999    121517    180315    124349    180095    124492    123824    123496
Memory Partition 0: 
Cache L2_bank_000:
MSHR contents

Cache L2_bank_001:
MSHR contents
MSHR: tag=0xc03e8f80, atomic=0 1 entries : 0x7fdb1f54ce90 :  mf: uid=644062, sid08:w07, part=0, addr=0xc03e8f80, load , size=128, unknown  status = IN_PARTITION_DRAM (754149), 

In Dram Latency Queue (total = 0): 
DRAM[0]: 16 bks, busW=4 BL=8 CL=12, tRRD=2 tCCD=6, tRCD=12 tRAS=28 tRP=12 tRC=40
n_cmd=987852 n_nop=970502 n_act=205 n_pre=189 n_req=4239 n_rd=11460 n_write=5496 bw_util=0.03433
n_activity=49806 dram_eff=0.6809
bk0: 760a 973955i bk1: 756a 974066i bk2: 736a 973758i bk3: 736a 974204i bk4: 692a 975719i bk5: 692a 975867i bk6: 692a 975587i bk7: 692a 975718i bk8: 664a 974650i bk9: 664a 974735i bk10: 648a 974175i bk11: 648a 974916i bk12: 768a 972357i bk13: 768a 972417i bk14: 772a 972763i bk15: 772a 972854i 
dram_util_bins: 0 0 0 0 0 0 0 0 0 0
dram_eff_bins: 0 0 0 0 0 0 0 0 0 0
mrqq: max=64 avg=1.31448
Memory Partition 1: 
Cache L2_bank_002:
MSHR contents

Cache L2_bank_003:
MSHR contents

In Dram Latency Queue (total = 0): 
DRAM[1]: 16 bks, busW=4 BL=8 CL=12, tRRD=2 tCCD=6, tRCD=12 tRAS=28 tRP=12 tRC=40
n_cmd=987852 n_nop=970500 n_act=206 n_pre=190 n_req=4239 n_rd=11460 n_write=5496 bw_util=0.03433
n_activity=49632 dram_eff=0.6833
bk0: 756a 973650i bk1: 756a 973874i bk2: 724a 974437i bk3: 724a 973994i bk4: 704a 974757i bk5: 704a 975152i bk6: 692a 975397i bk7: 692a 975299i bk8: 664a 974643i bk9: 664a 974716i bk10: 652a 974633i bk11: 652a 974513i bk12: 768a 972317i bk13: 768a 972629i bk14: 772a 972968i bk15: 768a 973109i 
dram_util_bins: 0 0 0 0 0 0 0 0 0 0
dram_eff_bins: 0 0 0 0 0 0 0 0 0 0
mrqq: max=64 avg=1.31512
Memory Partition 2: 
Cache L2_bank_004:
MSHR contents

Cache L2_bank_005:
MSHR contents

In Dram Latency Queue (total = 0): 
DRAM[2]: 16 bks, busW=4 BL=8 CL=12, tRRD=2 tCCD=6, tRCD=12 tRAS=28 tRP=12 tRC=40
n_cmd=987852 n_nop=970512 n_act=202 n_pre=186 n_req=4238 n_rd=11456 n_write=5496 bw_util=0.03432
n_activity=49417 dram_eff=0.6861
bk0: 768a 973835i bk1: 768a 973877i bk2: 724a 973727i bk3: 724a 974045i bk4: 704a 975511i bk5: 704a 975556i bk6: 692a 975647i bk7: 692a 975461i bk8: 664a 975448i bk9: 664a 974854i bk10: 652a 974020i bk11: 652a 974232i bk12: 768a 972102i bk13: 768a 972467i bk14: 756a 973206i bk15: 756a 973187i 
dram_util_bins: 0 0 0 0 0 0 0 0 0 0
dram_eff_bins: 0 0 0 0 0 0 0 0 0 0
mrqq: max=64 avg=1.31874
Memory Partition 3: 
Cache L2_bank_006:
MSHR contents

Cache L2_bank_007:
MSHR contents
MSHR: tag=0xc03e1980, atomic=0 1 entries : 0x7fdb22e4d940 :  mf: uid=644073, sid08:w00, part=3, addr=0xc03e1980, load , size=128, unknown  status = IN_PARTITION_L2_FILL_QUEUE (754153), 

In Dram Latency Queue (total = 0): 
DRAM[3]: 16 bks, busW=4 BL=8 CL=12, tRRD=2 tCCD=6, tRCD=12 tRAS=28 tRP=12 tRC=40
n_cmd=987852 n_nop=970496 n_act=210 n_pre=194 n_req=4238 n_rd=11456 n_write=5496 bw_util=0.03432
n_activity=49617 dram_eff=0.6833
bk0: 768a 973823i bk1: 768a 973776i bk2: 724a 973648i bk3: 724a 973669i bk4: 704a 975066i bk5: 704a 975093i bk6: 692a 975246i bk7: 692a 974951i bk8: 664a 974542i bk9: 664a 974718i bk10: 652a 974346i bk11: 652a 973823i bk12: 768a 972138i bk13: 768a 972609i bk14: 756a 972897i bk15: 756a 973001i 
dram_util_bins: 0 0 0 0 0 0 0 0 0 0
dram_eff_bins: 0 0 0 0 0 0 0 0 0 0
mrqq: max=64 avg=1.31335
Memory Partition 4: 
Cache L2_bank_008:
MSHR contents

Cache L2_bank_009:
MSHR contents
MSHR: tag=0xc03e7d80, atomic=0 1 entries : 0x7fdb221553e0 :  mf: uid=644019, sid04:w06, part=4, addr=0xc03e7d80, load , size=128, unknown  status = IN_PARTITION_DRAM (754153), 

In Dram Latency Queue (total = 0): 
DRAM[4]: 16 bks, busW=4 BL=8 CL=12, tRRD=2 tCCD=6, tRCD=12 tRAS=28 tRP=12 tRC=40
n_cmd=987852 n_nop=970486 n_act=204 n_pre=188 n_req=4244 n_rd=11470 n_write=5504 bw_util=0.03437
n_activity=49552 dram_eff=0.6851
bk0: 768a 973759i bk1: 766a 974145i bk2: 724a 973888i bk3: 724a 973979i bk4: 696a 975823i bk5: 696a 975996i bk6: 704a 975395i bk7: 704a 975002i bk8: 664a 974412i bk9: 664a 974837i bk10: 652a 973850i bk11: 652a 973626i bk12: 768a 971854i bk13: 768a 972577i bk14: 760a 973462i bk15: 760a 973495i 
dram_util_bins: 0 0 0 0 0 0 0 0 0 0
dram_eff_bins: 0 0 0 0 0 0 0 0 0 0
mrqq: max=64 avg=1.31646
Memory Partition 5: 
Cache L2_bank_010:
MSHR contents

Cache L2_bank_011:
MSHR contents
MSHR: tag=0xc03e8980, atomic=0 1 entries : 0x7fdb235265e0 :  mf: uid=644087, sid08:w04, part=5, addr=0xc03e8980, load , size=128, unknown  status = IN_PARTITION_DRAM (754151), 

In Dram Latency Queue (total = 0): 
DRAM[5]: 16 bks, busW=4 BL=8 CL=12, tRRD=2 tCCD=6, tRCD=12 tRAS=28 tRP=12 tRC=40
n_cmd=987852 n_nop=970492 n_act=208 n_pre=192 n_req=4240 n_rd=11464 n_write=5496 bw_util=0.03434
n_activity=49665 dram_eff=0.683
bk0: 756a 973854i bk1: 756a 974066i bk2: 732a 973699i bk3: 732a 973893i bk4: 696a 975404i bk5: 696a 975366i bk6: 704a 975477i bk7: 704a 975148i bk8: 664a 974840i bk9: 664a 974952i bk10: 652a 973916i bk11: 652a 973846i bk12: 768a 972241i bk13: 768a 972610i bk14: 760a 973116i bk15: 760a 973139i 
dram_util_bins: 0 0 0 0 0 0 0 0 0 0
dram_eff_bins: 0 0 0 0 0 0 0 0 0 0
mrqq: max=64 avg=1.30648
Memory Partition 6: 
Cache L2_bank_012:
MSHR contents

Cache L2_bank_013:
MSHR contents

In Dram Latency Queue (total = 0): 
DRAM[6]: 16 bks, busW=4 BL=8 CL=12, tRRD=2 tCCD=6, tRCD=12 tRAS=28 tRP=12 tRC=40
n_cmd=987852 n_nop=970494 n_act=207 n_pre=191 n_req=4240 n_rd=11464 n_write=5496 bw_util=0.03434
n_activity=49536 dram_eff=0.6848
bk0: 756a 973379i bk1: 756a 974060i bk2: 732a 973585i bk3: 732a 973623i bk4: 696a 975124i bk5: 696a 976338i bk6: 704a 975570i bk7: 704a 974974i bk8: 664a 975161i bk9: 664a 975164i bk10: 652a 973538i bk11: 652a 973460i bk12: 756a 972549i bk13: 756a 972546i bk14: 772a 972944i bk15: 772a 973132i 
dram_util_bins: 0 0 0 0 0 0 0 0 0 0
dram_eff_bins: 0 0 0 0 0 0 0 0 0 0
mrqq: max=64 avg=1.30984
Memory Partition 7: 
Cache L2_bank_014:
MSHR contents

Cache L2_bank_015:
MSHR contents

In Dram Latency Queue (total = 0): 
DRAM[7]: 16 bks, busW=4 BL=8 CL=12, tRRD=2 tCCD=6, tRCD=12 tRAS=28 tRP=12 tRC=40
n_cmd=987852 n_nop=970468 n_act=212 n_pre=196 n_req=4244 n_rd=11472 n_write=5504 bw_util=0.03437
n_activity=49661 dram_eff=0.6837
bk0: 756a 973231i bk1: 756a 973678i bk2: 732a 973576i bk3: 732a 973484i bk4: 696a 975741i bk5: 696a 975298i bk6: 704a 975366i bk7: 704a 974649i bk8: 656a 974828i bk9: 656a 975121i bk10: 664a 973486i bk11: 664a 973229i bk12: 756a 972477i bk13: 756a 972711i bk14: 772a 972455i bk15: 772a 972981i 
dram_util_bins: 0 0 0 0 0 0 0 0 0 0
dram_eff_bins: 0 0 0 0 0 0 0 0 0 0
mrqq: max=64 avg=1.3059
Memory Partition 8: 
Cache L2_bank_016:
MSHR contents

Cache L2_bank_017:
MSHR contents

In Dram Latency Queue (total = 0): 
DRAM[8]: 16 bks, busW=4 BL=8 CL=12, tRRD=2 tCCD=6, tRCD=12 tRAS=28 tRP=12 tRC=40
n_cmd=987852 n_nop=970496 n_act=206 n_pre=190 n_req=4240 n_rd=11464 n_write=5496 bw_util=0.03434
n_activity=49563 dram_eff=0.6844
bk0: 756a 973698i bk1: 756a 973795i bk2: 732a 973843i bk3: 732a 973435i bk4: 692a 976260i bk5: 692a 975534i bk6: 704a 975076i bk7: 704a 974802i bk8: 656a 975052i bk9: 656a 975202i bk10: 664a 973468i bk11: 664a 973342i bk12: 756a 972570i bk13: 756a 972766i bk14: 772a 972910i bk15: 772a 972554i 
dram_util_bins: 0 0 0 0 0 0 0 0 0 0
dram_eff_bins: 0 0 0 0 0 0 0 0 0 0
mrqq: max=64 avg=1.30882
Memory Partition 9: 
Cache L2_bank_018:
MSHR contents

Cache L2_bank_019:
MSHR contents

In Dram Latency Queue (total = 0): 
DRAM[9]: 16 bks, busW=4 BL=8 CL=12, tRRD=2 tCCD=6, tRCD=12 tRAS=28 tRP=12 tRC=40
n_cmd=987852 n_nop=970502 n_act=207 n_pre=191 n_req=4238 n_rd=11456 n_write=5496 bw_util=0.03432
n_activity=49387 dram_eff=0.6865
bk0: 768a 973434i bk1: 768a 973440i bk2: 732a 974153i bk3: 732a 973935i bk4: 692a 975598i bk5: 692a 975575i bk6: 704a 975627i bk7: 704a 975053i bk8: 652a 974960i bk9: 652a 975061i bk10: 664a 973749i bk11: 664a 973784i bk12: 756a 972626i bk13: 756a 972655i bk14: 760a 973098i bk15: 760a 973273i 
dram_util_bins: 0 0 0 0 0 0 0 0 0 0
dram_eff_bins: 0 0 0 0 0 0 0 0 0 0
mrqq: max=64 avg=1.30859
Memory Partition 10: 
Cache L2_bank_020:
MSHR contents

Cache L2_bank_021:
MSHR contents

In Dram Latency Queue (total = 0): 
DRAM[10]: 16 bks, busW=4 BL=8 CL=12, tRRD=2 tCCD=6, tRCD=12 tRAS=28 tRP=12 tRC=40
n_cmd=987852 n_nop=970488 n_act=206 n_pre=190 n_req=4242 n_rd=11464 n_write=5504 bw_util=0.03435
n_activity=49705 dram_eff=0.6827
bk0: 768a 973347i bk1: 768a 973679i bk2: 732a 973369i bk3: 732a 974040i bk4: 692a 976353i bk5: 692a 975874i bk6: 704a 975285i bk7: 704a 975066i bk8: 652a 975133i bk9: 652a 975173i bk10: 656a 973864i bk11: 656a 973594i bk12: 768a 972257i bk13: 768a 972583i bk14: 760a 973344i bk15: 760a 973480i 
dram_util_bins: 0 0 0 0 0 0 0 0 0 0
dram_eff_bins: 0 0 0 0 0 0 0 0 0 0
mrqq: max=64 avg=1.31408

========= L2 cache stats =========
L2_cache_bank[0]: Access = 2169, Miss = 1433, Miss_rate = 0.661, Pending_hits = 31, Reservation_fails = 0
L2_cache_bank[1]: Access = 2140, Miss = 1432, Miss_rate = 0.669, Pending_hits = 105, Reservation_fails = 0
L2_cache_bank[2]: Access = 2141, Miss = 1433, Miss_rate = 0.669, Pending_hits = 2, Reservation_fails = 0
L2_cache_bank[3]: Access = 2114, Miss = 1432, Miss_rate = 0.677, Pending_hits = 102, Reservation_fails = 0
L2_cache_bank[4]: Access = 2115, Miss = 1432, Miss_rate = 0.677, Pending_hits = 2, Reservation_fails = 0
L2_cache_bank[5]: Access = 2115, Miss = 1432, Miss_rate = 0.677, Pending_hits = 106, Reservation_fails = 0
L2_cache_bank[6]: Access = 2113, Miss = 1432, Miss_rate = 0.678, Pending_hits = 0, Reservation_fails = 0
L2_cache_bank[7]: Access = 2112, Miss = 1432, Miss_rate = 0.678, Pending_hits = 103, Reservation_fails = 0
L2_cache_bank[8]: Access = 2142, Miss = 1434, Miss_rate = 0.669, Pending_hits = 27, Reservation_fails = 0
L2_cache_bank[9]: Access = 2143, Miss = 1434, Miss_rate = 0.669, Pending_hits = 133, Reservation_fails = 0
L2_cache_bank[10]: Access = 2142, Miss = 1433, Miss_rate = 0.669, Pending_hits = 28, Reservation_fails = 0
L2_cache_bank[11]: Access = 2141, Miss = 1433, Miss_rate = 0.669, Pending_hits = 131, Reservation_fails = 0
L2_cache_bank[12]: Access = 2140, Miss = 1433, Miss_rate = 0.670, Pending_hits = 28, Reservation_fails = 0
L2_cache_bank[13]: Access = 2141, Miss = 1433, Miss_rate = 0.669, Pending_hits = 134, Reservation_fails = 0
L2_cache_bank[14]: Access = 2144, Miss = 1434, Miss_rate = 0.669, Pending_hits = 29, Reservation_fails = 0
L2_cache_bank[15]: Access = 2144, Miss = 1434, Miss_rate = 0.669, Pending_hits = 129, Reservation_fails = 0
L2_cache_bank[16]: Access = 2142, Miss = 1433, Miss_rate = 0.669, Pending_hits = 31, Reservation_fails = 0
L2_cache_bank[17]: Access = 2141, Miss = 1433, Miss_rate = 0.669, Pending_hits = 129, Reservation_fails = 0
L2_cache_bank[18]: Access = 2140, Miss = 1432, Miss_rate = 0.669, Pending_hits = 5, Reservation_fails = 0
L2_cache_bank[19]: Access = 2141, Miss = 1432, Miss_rate = 0.669, Pending_hits = 106, Reservation_fails = 0
L2_cache_bank[20]: Access = 2144, Miss = 1433, Miss_rate = 0.668, Pending_hits = 2, Reservation_fails = 0
L2_cache_bank[21]: Access = 2144, Miss = 1433, Miss_rate = 0.668, Pending_hits = 108, Reservation_fails = 0
L2_total_cache_accesses = 47008
L2_total_cache_misses = 31522
L2_total_cache_miss_rate = 0.6706
L2_total_cache_pending_hits = 1471
L2_total_cache_reservation_fails = 0
L2_total_cache_breakdown:
	L2_cache_stats_breakdown[GLOBAL_ACC_R][HIT] = 13839
	L2_cache_stats_breakdown[GLOBAL_ACC_R][HIT_RESERVED] = 1161
	L2_cache_stats_breakdown[GLOBAL_ACC_R][MISS] = 16384
	L2_cache_stats_breakdown[GLOBAL_ACC_R][RESERVATION_FAIL] = 0
	L2_cache_stats_breakdown[LOCAL_ACC_R][HIT] = 0
	L2_cache_stats_breakdown[LOCAL_ACC_R][HIT_RESERVED] = 0
	L2_cache_stats_breakdown[LOCAL_ACC_R][MISS] = 0
	L2_cache_stats_breakdown[LOCAL_ACC_R][RESERVATION_FAIL] = 0
	L2_cache_stats_breakdown[CONST_ACC_R][HIT] = 0
	L2_cache_stats_breakdown[CONST_ACC_R][HIT_RESERVED] = 27
	L2_cache_stats_breakdown[CONST_ACC_R][MISS] = 1
	L2_cache_stats_breakdown[CONST_ACC_R][RESERVATION_FAIL] = 0
	L2_cache_stats_breakdown[TEXTURE_ACC_R][HIT] = 0
	L2_cache_stats_breakdown[TEXTURE_ACC_R][HIT_RESERVED] = 0
	L2_cache_stats_breakdown[TEXTURE_ACC_R][MISS] = 0
	L2_cache_stats_breakdown[TEXTURE_ACC_R][RESERVATION_FAIL] = 0
	L2_cache_stats_breakdown[GLOBAL_ACC_W][HIT] = 0
	L2_cache_stats_breakdown[GLOBAL_ACC_W][HIT_RESERVED] = 0
	L2_cache_stats_breakdown[GLOBAL_ACC_W][MISS] = 15120
	L2_cache_stats_breakdown[GLOBAL_ACC_W][RESERVATION_FAIL] = 0
	L2_cache_stats_breakdown[LOCAL_ACC_W][HIT] = 0
	L2_cache_stats_breakdown[LOCAL_ACC_W][HIT_RESERVED] = 0
	L2_cache_stats_breakdown[LOCAL_ACC_W][MISS] = 0
	L2_cache_stats_breakdown[LOCAL_ACC_W][RESERVATION_FAIL] = 0
	L2_cache_stats_breakdown[L1_WRBK_ACC][HIT] = 0
	L2_cache_stats_breakdown[L1_WRBK_ACC][HIT_RESERVED] = 0
	L2_cache_stats_breakdown[L1_WRBK_ACC][MISS] = 0
	L2_cache_stats_breakdown[L1_WRBK_ACC][RESERVATION_FAIL] = 0
	L2_cache_stats_breakdown[L2_WRBK_ACC][HIT] = 0
	L2_cache_stats_breakdown[L2_WRBK_ACC][HIT_RESERVED] = 0
	L2_cache_stats_breakdown[L2_WRBK_ACC][MISS] = 0
	L2_cache_stats_breakdown[L2_WRBK_ACC][RESERVATION_FAIL] = 0
	L2_cache_stats_breakdown[INST_ACC_R][HIT] = 176
	L2_cache_stats_breakdown[INST_ACC_R][HIT_RESERVED] = 283
	L2_cache_stats_breakdown[INST_ACC_R][MISS] = 17
	L2_cache_stats_breakdown[INST_ACC_R][RESERVATION_FAIL] = 0
	L2_cache_stats_breakdown[L1_WR_ALLOC_R][HIT] = 0
	L2_cache_stats_breakdown[L1_WR_ALLOC_R][HIT_RESERVED] = 0
	L2_cache_stats_breakdown[L1_WR_ALLOC_R][MISS] = 0
	L2_cache_stats_breakdown[L1_WR_ALLOC_R][RESERVATION_FAIL] = 0
	L2_cache_stats_breakdown[L2_WR_ALLOC_R][HIT] = 0
	L2_cache_stats_breakdown[L2_WR_ALLOC_R][HIT_RESERVED] = 0
	L2_cache_stats_breakdown[L2_WR_ALLOC_R][MISS] = 0
	L2_cache_stats_breakdown[L2_WR_ALLOC_R][RESERVATION_FAIL] = 0
	L2_cache_stats_breakdown[GLOBAL_ACC_R][TOTAL_ACCESS] = 31384
	L2_cache_stats_breakdown[CONST_ACC_R][TOTAL_ACCESS] = 28
	L2_cache_stats_breakdown[GLOBAL_ACC_W][TOTAL_ACCESS] = 15120
	L2_cache_stats_breakdown[INST_ACC_R][TOTAL_ACCESS] = 476
L2_cache_data_port_util = 0.003
L2_cache_fill_port_util = 0.011

icnt_total_pkts_mem_to_simt=151824
icnt_total_pkts_simt_to_mem=107488
LD_mem_lat_dist  0 0 0 0 0 0 0 0 0 0 0 0 0 0 0 0 0 0 0 0 0 0 0 0 0 0 0
ST_mem_lat_dist  0 0 0 0 0 0 0 0 0 0 0 0 0 0 0 0 0 0 0 0 0 0 0 0 0 0 0
----------------------------Interconnect-DETAILS--------------------------------
Class 0:
Packet latency average = 20.8801
	minimum = 6
	maximum = 1385
Network latency average = 17.1128
	minimum = 6
	maximum = 1366
Slowest packet = 42285
Flit latency average = 19.5113
	minimum = 6
	maximum = 1362
Slowest flit = 119784
Fragmentation average = 0.94836
	minimum = 0
	maximum = 1327
Injected packet rate average = 0.00176721
	minimum = 0.00140037 (at node 0)
	maximum = 0.00209209 (at node 3)
Accepted packet rate average = 0.00176721
	minimum = 0.00140037 (at node 0)
	maximum = 0.00209209 (at node 3)
Injected flit rate average = 0.00487426
	minimum = 0.00320487 (at node 0)
	maximum = 0.00658737 (at node 28)
Accepted flit rate average= 0.00487426
	minimum = 0.00451877 (at node 0)
	maximum = 0.0067368 (at node 3)
Injected packet length average = 2.75817
Accepted packet length average = 2.75817
Total in-flight flits = 0 (0 measured)
====== Overall Traffic Statistics ======
====== Traffic class 0 ======
Packet latency average = 20.8801 (1 samples)
	minimum = 6 (1 samples)
	maximum = 1385 (1 samples)
Network latency average = 17.1128 (1 samples)
	minimum = 6 (1 samples)
	maximum = 1366 (1 samples)
Flit latency average = 19.5113 (1 samples)
	minimum = 6 (1 samples)
	maximum = 1362 (1 samples)
Fragmentation average = 0.94836 (1 samples)
	minimum = 0 (1 samples)
	maximum = 1327 (1 samples)
Injected packet rate average = 0.00176721 (1 samples)
	minimum = 0.00140037 (1 samples)
	maximum = 0.00209209 (1 samples)
Accepted packet rate average = 0.00176721 (1 samples)
	minimum = 0.00140037 (1 samples)
	maximum = 0.00209209 (1 samples)
Injected flit rate average = 0.00487426 (1 samples)
	minimum = 0.00320487 (1 samples)
	maximum = 0.00658737 (1 samples)
Accepted flit rate average = 0.00487426 (1 samples)
	minimum = 0.00451877 (1 samples)
	maximum = 0.0067368 (1 samples)
Injected packet size average = 2.75817 (1 samples)
Accepted packet size average = 2.75817 (1 samples)
Hops average = 1 (1 samples)
----------------------------END-of-Interconnect-DETAILS-------------------------


gpgpu_simulation_time = 0 days, 0 hrs, 12 min, 55 sec (775 sec)
gpgpu_simulation_rate = 37224 (inst/sec)
gpgpu_simulation_rate = 973 (cycle/sec)
GPGPU-Sim uArch: Shader 9 bind to kernel 2 '_Z24block2D_hybrid_coarsen_xffPfS_iii'
GPGPU-Sim uArch: Shader 10 bind to kernel 2 '_Z24block2D_hybrid_coarsen_xffPfS_iii'
GPGPU-Sim uArch: Shader 11 bind to kernel 2 '_Z24block2D_hybrid_coarsen_xffPfS_iii'
GPGPU-Sim uArch: Shader 12 bind to kernel 2 '_Z24block2D_hybrid_coarsen_xffPfS_iii'
GPGPU-Sim uArch: Shader 13 bind to kernel 2 '_Z24block2D_hybrid_coarsen_xffPfS_iii'
GPGPU-Sim uArch: Shader 14 bind to kernel 2 '_Z24block2D_hybrid_coarsen_xffPfS_iii'
GPGPU-Sim uArch: Shader 15 bind to kernel 2 '_Z24block2D_hybrid_coarsen_xffPfS_iii'
GPGPU-Sim uArch: Shader 16 bind to kernel 2 '_Z24block2D_hybrid_coarsen_xffPfS_iii'
GPGPU-Sim uArch: Shader 17 bind to kernel 2 '_Z24block2D_hybrid_coarsen_xffPfS_iii'
GPGPU-Sim uArch: Shader 18 bind to kernel 2 '_Z24block2D_hybrid_coarsen_xffPfS_iii'
GPGPU-Sim uArch: Shader 19 bind to kernel 2 '_Z24block2D_hybrid_coarsen_xffPfS_iii'
GPGPU-Sim uArch: Shader 20 bind to kernel 2 '_Z24block2D_hybrid_coarsen_xffPfS_iii'
GPGPU-Sim uArch: Shader 21 bind to kernel 2 '_Z24block2D_hybrid_coarsen_xffPfS_iii'
GPGPU-Sim uArch: Shader 22 bind to kernel 2 '_Z24block2D_hybrid_coarsen_xffPfS_iii'
GPGPU-Sim uArch: Shader 23 bind to kernel 2 '_Z24block2D_hybrid_coarsen_xffPfS_iii'
GPGPU-Sim uArch: Shader 24 bind to kernel 2 '_Z24block2D_hybrid_coarsen_xffPfS_iii'
GPGPU-Sim uArch: Shader 25 bind to kernel 2 '_Z24block2D_hybrid_coarsen_xffPfS_iii'
GPGPU-Sim uArch: Shader 26 bind to kernel 2 '_Z24block2D_hybrid_coarsen_xffPfS_iii'
GPGPU-Sim uArch: Shader 27 bind to kernel 2 '_Z24block2D_hybrid_coarsen_xffPfS_iii'
GPGPU-Sim uArch: Shader 0 bind to kernel 2 '_Z24block2D_hybrid_coarsen_xffPfS_iii'
GPGPU-Sim uArch: Shader 1 bind to kernel 2 '_Z24block2D_hybrid_coarsen_xffPfS_iii'
GPGPU-Sim uArch: Shader 2 bind to kernel 2 '_Z24block2D_hybrid_coarsen_xffPfS_iii'
GPGPU-Sim uArch: Shader 3 bind to kernel 2 '_Z24block2D_hybrid_coarsen_xffPfS_iii'
GPGPU-Sim uArch: Shader 4 bind to kernel 2 '_Z24block2D_hybrid_coarsen_xffPfS_iii'
GPGPU-Sim uArch: Shader 5 bind to kernel 2 '_Z24block2D_hybrid_coarsen_xffPfS_iii'
GPGPU-Sim uArch: Shader 6 bind to kernel 2 '_Z24block2D_hybrid_coarsen_xffPfS_iii'
GPGPU-Sim uArch: Shader 7 bind to kernel 2 '_Z24block2D_hybrid_coarsen_xffPfS_iii'
GPGPU-Sim uArch: Shader 8 bind to kernel 2 '_Z24block2D_hybrid_coarsen_xffPfS_iii'
Destroy streams for kernel 2: size 0
kernel_name = _Z24block2D_hybrid_coarsen_xffPfS_iii 
kernel_launch_uid = 2 
gpu_sim_cycle = 41682
gpu_sim_insn = 28848876
gpu_ipc =     692.1183
gpu_tot_sim_cycle = 1017986
gpu_tot_sim_insn = 57697752
gpu_tot_ipc =      56.6783
gpu_tot_issued_cta = 128
max_total_param_size = 0
gpu_stall_dramfull = 88833
gpu_stall_icnt2sh    = 2756
partiton_reqs_in_parallel = 917004
partiton_reqs_in_parallel_total    = 11615255
partiton_level_parallism =      22.0000
partiton_level_parallism_total  =      12.3108
partiton_reqs_in_parallel_util = 917004
partiton_reqs_in_parallel_util_total    = 11615255
gpu_sim_cycle_parition_util = 41682
gpu_tot_sim_cycle_parition_util    = 530683
partiton_level_parallism_util =      22.0000
partiton_level_parallism_util_total  =      21.8956
partiton_replys_in_parallel = 46504
partiton_replys_in_parallel_total    = 47008
L2_BW  =     105.7491 GB/Sec
L2_BW_total  =       8.7068 GB/Sec
gpu_total_sim_rate=61907

========= Core cache stats =========
L1I_cache:
	L1I_total_cache_accesses = 1158456
	L1I_total_cache_misses = 3182
	L1I_total_cache_miss_rate = 0.0027
	L1I_total_cache_pending_hits = 0
	L1I_total_cache_reservation_fails = 0
L1D_cache:
	L1D_cache_core[0]: Access = 0, Miss = 0, Miss_rate = -nan, Pending_hits = 0, Reservation_fails = 0
	L1D_cache_core[1]: Access = 0, Miss = 0, Miss_rate = -nan, Pending_hits = 0, Reservation_fails = 0
	L1D_cache_core[2]: Access = 0, Miss = 0, Miss_rate = -nan, Pending_hits = 0, Reservation_fails = 0
	L1D_cache_core[3]: Access = 0, Miss = 0, Miss_rate = -nan, Pending_hits = 0, Reservation_fails = 0
	L1D_cache_core[4]: Access = 0, Miss = 0, Miss_rate = -nan, Pending_hits = 0, Reservation_fails = 0
	L1D_cache_core[5]: Access = 0, Miss = 0, Miss_rate = -nan, Pending_hits = 0, Reservation_fails = 0
	L1D_cache_core[6]: Access = 0, Miss = 0, Miss_rate = -nan, Pending_hits = 0, Reservation_fails = 0
	L1D_cache_core[7]: Access = 0, Miss = 0, Miss_rate = -nan, Pending_hits = 0, Reservation_fails = 0
	L1D_cache_core[8]: Access = 0, Miss = 0, Miss_rate = -nan, Pending_hits = 0, Reservation_fails = 0
	L1D_cache_core[9]: Access = 0, Miss = 0, Miss_rate = -nan, Pending_hits = 0, Reservation_fails = 0
	L1D_cache_core[10]: Access = 0, Miss = 0, Miss_rate = -nan, Pending_hits = 0, Reservation_fails = 0
	L1D_cache_core[11]: Access = 0, Miss = 0, Miss_rate = -nan, Pending_hits = 0, Reservation_fails = 0
	L1D_cache_core[12]: Access = 0, Miss = 0, Miss_rate = -nan, Pending_hits = 0, Reservation_fails = 0
	L1D_cache_core[13]: Access = 0, Miss = 0, Miss_rate = -nan, Pending_hits = 0, Reservation_fails = 0
	L1D_cache_core[14]: Access = 0, Miss = 0, Miss_rate = -nan, Pending_hits = 0, Reservation_fails = 0
	L1D_cache_core[15]: Access = 0, Miss = 0, Miss_rate = -nan, Pending_hits = 0, Reservation_fails = 0
	L1D_cache_core[16]: Access = 0, Miss = 0, Miss_rate = -nan, Pending_hits = 0, Reservation_fails = 0
	L1D_cache_core[17]: Access = 0, Miss = 0, Miss_rate = -nan, Pending_hits = 0, Reservation_fails = 0
	L1D_cache_core[18]: Access = 0, Miss = 0, Miss_rate = -nan, Pending_hits = 0, Reservation_fails = 0
	L1D_cache_core[19]: Access = 0, Miss = 0, Miss_rate = -nan, Pending_hits = 0, Reservation_fails = 0
	L1D_cache_core[20]: Access = 0, Miss = 0, Miss_rate = -nan, Pending_hits = 0, Reservation_fails = 0
	L1D_cache_core[21]: Access = 0, Miss = 0, Miss_rate = -nan, Pending_hits = 0, Reservation_fails = 0
	L1D_cache_core[22]: Access = 0, Miss = 0, Miss_rate = -nan, Pending_hits = 0, Reservation_fails = 0
	L1D_cache_core[23]: Access = 0, Miss = 0, Miss_rate = -nan, Pending_hits = 0, Reservation_fails = 0
	L1D_cache_core[24]: Access = 0, Miss = 0, Miss_rate = -nan, Pending_hits = 0, Reservation_fails = 0
	L1D_cache_core[25]: Access = 0, Miss = 0, Miss_rate = -nan, Pending_hits = 0, Reservation_fails = 0
	L1D_cache_core[26]: Access = 0, Miss = 0, Miss_rate = -nan, Pending_hits = 0, Reservation_fails = 0
	L1D_cache_core[27]: Access = 0, Miss = 0, Miss_rate = -nan, Pending_hits = 0, Reservation_fails = 0
	L1D_total_cache_accesses = 0
	L1D_total_cache_misses = 0
	L1D_total_cache_pending_hits = 0
	L1D_total_cache_reservation_fails = 0
	L1D_cache_data_port_util = 0.000
	L1D_cache_fill_port_util = 0.000
L1C_cache:
	L1C_total_cache_accesses = 3584
	L1C_total_cache_misses = 1632
	L1C_total_cache_miss_rate = 0.4554
	L1C_total_cache_pending_hits = 0
	L1C_total_cache_reservation_fails = 1444
L1T_cache:
	L1T_total_cache_accesses = 0
[...]
----------------------------Interconnect-DETAILS--------------------------------
Class 0:
Packet latency average = 8.55737
	minimum = 6
	maximum = 48
Network latency average = 8.42467
	minimum = 6
	maximum = 43
Slowest packet = 3631166
Flit latency average = 6.89164
	minimum = 6
	maximum = 39
Slowest flit = 10008524
Fragmentation average = 0
	minimum = 0
	maximum = 0
Injected packet rate average = 0.0236836
	minimum = 0.0187416 (at node 0)
	maximum = 0.0281123 (at node 7)
Accepted packet rate average = 0.0236836
	minimum = 0.0187416 (at node 0)
	maximum = 0.0281123 (at node 7)
Injected flit rate average = 0.0652756
	minimum = 0.0431871 (at node 0)
	maximum = 0.086527 (at node 42)
Accepted flit rate average= 0.0652756
	minimum = 0.0600952 (at node 0)
	maximum = 0.0901429 (at node 7)
Injected packet length average = 2.75615
Accepted packet length average = 2.75615
Total in-flight flits = 0 (0 measured)
====== Overall Traffic Statistics ======
====== Traffic class 0 ======
Packet latency average = 8.88072 (40 samples)
	minimum = 6 (40 samples)
	maximum = 83.15 (40 samples)
Network latency average = 8.65438 (40 samples)
	minimum = 6 (40 samples)
	maximum = 79.4 (40 samples)
Flit latency average = 7.21864 (40 samples)
	minimum = 6 (40 samples)
	maximum = 75.7 (40 samples)
Fragmentation average = 0.023709 (40 samples)
	minimum = 0 (40 samples)
	maximum = 33.175 (40 samples)
Injected packet rate average = 0.0230244 (40 samples)
	minimum = 0.0182199 (40 samples)
	maximum = 0.0273296 (40 samples)
Accepted packet rate average = 0.0230244 (40 samples)
	minimum = 0.0182199 (40 samples)
	maximum = 0.0273296 (40 samples)
Injected flit rate average = 0.0634587 (40 samples)
	minimum = 0.0419845 (40 samples)
	maximum = 0.0841216 (40 samples)
Accepted flit rate average = 0.0634587 (40 samples)
	minimum = 0.0584232 (40 samples)
	maximum = 0.0876338 (40 samples)
Injected packet size average = 2.75615 (40 samples)
Accepted packet size average = 2.75615 (40 samples)
Hops average = 1 (40 samples)
----------------------------END-of-Interconnect-DETAILS-------------------------


gpgpu_simulation_time = 0 days, 1 hrs, 54 min, 3 sec (6843 sec)
gpgpu_simulation_rate = 168632 (inst/sec)
gpgpu_simulation_rate = 1601 (cycle/sec)
========================================UVM statistics==============================
========================================TLB statistics(access)==============================
Shader0: Tlb_access: 66226 Tlb_hit: 62723 Tlb_miss: 3503 Tlb_hit_rate: 0.947105
Shader1: Tlb_access: 66812 Tlb_hit: 63076 Tlb_miss: 3736 Tlb_hit_rate: 0.944082
Shader2: Tlb_access: 66812 Tlb_hit: 63037 Tlb_miss: 3775 Tlb_hit_rate: 0.943498
Shader3: Tlb_access: 66812 Tlb_hit: 63188 Tlb_miss: 3624 Tlb_hit_rate: 0.945758
Shader4: Tlb_access: 66812 Tlb_hit: 63186 Tlb_miss: 3626 Tlb_hit_rate: 0.945728
Shader5: Tlb_access: 66812 Tlb_hit: 63147 Tlb_miss: 3665 Tlb_hit_rate: 0.945145
Shader6: Tlb_access: 66812 Tlb_hit: 63093 Tlb_miss: 3719 Tlb_hit_rate: 0.944336
Shader7: Tlb_access: 66812 Tlb_hit: 63184 Tlb_miss: 3628 Tlb_hit_rate: 0.945698
Shader8: Tlb_access: 66812 Tlb_hit: 63193 Tlb_miss: 3619 Tlb_hit_rate: 0.945833
Shader9: Tlb_access: 66812 Tlb_hit: 63139 Tlb_miss: 3673 Tlb_hit_rate: 0.945025
Shader10: Tlb_access: 66812 Tlb_hit: 63078 Tlb_miss: 3734 Tlb_hit_rate: 0.944112
Shader11: Tlb_access: 66812 Tlb_hit: 63291 Tlb_miss: 3521 Tlb_hit_rate: 0.947300
Shader12: Tlb_access: 66812 Tlb_hit: 63298 Tlb_miss: 3514 Tlb_hit_rate: 0.947405
Shader13: Tlb_access: 66226 Tlb_hit: 62676 Tlb_miss: 3550 Tlb_hit_rate: 0.946396
Shader14: Tlb_access: 66226 Tlb_hit: 62635 Tlb_miss: 3591 Tlb_hit_rate: 0.945777
Shader15: Tlb_access: 66076 Tlb_hit: 62516 Tlb_miss: 3560 Tlb_hit_rate: 0.946123
Shader16: Tlb_access: 66076 Tlb_hit: 62525 Tlb_miss: 3551 Tlb_hit_rate: 0.946259
Shader17: Tlb_access: 66076 Tlb_hit: 62406 Tlb_miss: 3670 Tlb_hit_rate: 0.944458
Shader18: Tlb_access: 66076 Tlb_hit: 62348 Tlb_miss: 3728 Tlb_hit_rate: 0.943580
Shader19: Tlb_access: 66226 Tlb_hit: 62702 Tlb_miss: 3524 Tlb_hit_rate: 0.946788
Shader20: Tlb_access: 66226 Tlb_hit: 62702 Tlb_miss: 3524 Tlb_hit_rate: 0.946788
Shader21: Tlb_access: 66226 Tlb_hit: 62668 Tlb_miss: 3558 Tlb_hit_rate: 0.946275
Shader22: Tlb_access: 66226 Tlb_hit: 62603 Tlb_miss: 3623 Tlb_hit_rate: 0.945293
Shader23: Tlb_access: 66076 Tlb_hit: 62526 Tlb_miss: 3550 Tlb_hit_rate: 0.946274
Shader24: Tlb_access: 66076 Tlb_hit: 62556 Tlb_miss: 3520 Tlb_hit_rate: 0.946728
Shader25: Tlb_access: 66076 Tlb_hit: 62404 Tlb_miss: 3672 Tlb_hit_rate: 0.944428
Shader26: Tlb_access: 66076 Tlb_hit: 62364 Tlb_miss: 3712 Tlb_hit_rate: 0.943822
Shader27: Tlb_access: 66226 Tlb_hit: 62703 Tlb_miss: 3523 Tlb_hit_rate: 0.946803
Tlb_tot_access: 1860160 Tlb_tot_hit: 1758967, Tlb_tot_miss: 101193, Tlb_tot_hit_rate: 0.945600
========================================TLB statistics(validate)==============================
Shader0: Tlb_validate: 1024 Tlb_invalidate: 960 Tlb_evict: 0 Tlb_page_evict: 960
Shader1: Tlb_validate: 1024 Tlb_invalidate: 960 Tlb_evict: 0 Tlb_page_evict: 960
Shader2: Tlb_validate: 1024 Tlb_invalidate: 960 Tlb_evict: 0 Tlb_page_evict: 960
Shader3: Tlb_validate: 1024 Tlb_invalidate: 960 Tlb_evict: 0 Tlb_page_evict: 960
Shader4: Tlb_validate: 1024 Tlb_invalidate: 960 Tlb_evict: 0 Tlb_page_evict: 960
Shader5: Tlb_validate: 1024 Tlb_invalidate: 960 Tlb_evict: 0 Tlb_page_evict: 960
Shader6: Tlb_validate: 1024 Tlb_invalidate: 960 Tlb_evict: 0 Tlb_page_evict: 960
Shader7: Tlb_validate: 1024 Tlb_invalidate: 960 Tlb_evict: 0 Tlb_page_evict: 960
Shader8: Tlb_validate: 1024 Tlb_invalidate: 960 Tlb_evict: 0 Tlb_page_evict: 960
Shader9: Tlb_validate: 1024 Tlb_invalidate: 960 Tlb_evict: 0 Tlb_page_evict: 960
Shader10: Tlb_validate: 1024 Tlb_invalidate: 960 Tlb_evict: 0 Tlb_page_evict: 960
Shader11: Tlb_validate: 1024 Tlb_invalidate: 960 Tlb_evict: 0 Tlb_page_evict: 960
Shader12: Tlb_validate: 1024 Tlb_invalidate: 960 Tlb_evict: 0 Tlb_page_evict: 960
Shader13: Tlb_validate: 1024 Tlb_invalidate: 960 Tlb_evict: 0 Tlb_page_evict: 960
Shader14: Tlb_validate: 1024 Tlb_invalidate: 960 Tlb_evict: 0 Tlb_page_evict: 960
Shader15: Tlb_validate: 1024 Tlb_invalidate: 960 Tlb_evict: 0 Tlb_page_evict: 960
Shader16: Tlb_validate: 1024 Tlb_invalidate: 960 Tlb_evict: 0 Tlb_page_evict: 960
Shader17: Tlb_validate: 1024 Tlb_invalidate: 960 Tlb_evict: 0 Tlb_page_evict: 960
Shader18: Tlb_validate: 1024 Tlb_invalidate: 960 Tlb_evict: 0 Tlb_page_evict: 960
Shader19: Tlb_validate: 1024 Tlb_invalidate: 960 Tlb_evict: 0 Tlb_page_evict: 960
Shader20: Tlb_validate: 1024 Tlb_invalidate: 960 Tlb_evict: 0 Tlb_page_evict: 960
Shader21: Tlb_validate: 1024 Tlb_invalidate: 960 Tlb_evict: 0 Tlb_page_evict: 960
Shader22: Tlb_validate: 1024 Tlb_invalidate: 960 Tlb_evict: 0 Tlb_page_evict: 960
Shader23: Tlb_validate: 1024 Tlb_invalidate: 960 Tlb_evict: 0 Tlb_page_evict: 960
Shader24: Tlb_validate: 1024 Tlb_invalidate: 960 Tlb_evict: 0 Tlb_page_evict: 960
Shader25: Tlb_validate: 1024 Tlb_invalidate: 960 Tlb_evict: 0 Tlb_page_evict: 960
Shader26: Tlb_validate: 1024 Tlb_invalidate: 960 Tlb_evict: 0 Tlb_page_evict: 960
Shader27: Tlb_validate: 1024 Tlb_invalidate: 960 Tlb_evict: 0 Tlb_page_evict: 960
Tlb_tot_valiate: 28672 Tlb_invalidate: 26880, Tlb_tot_evict: 0, Tlb_tot_evict page: 26880
========================================TLB statistics(threshing)==============================
Shader0: Total 0
Shader1: Total 0
Shader2: Total 0
Shader3: Total 0
Shader4: Total 0
Shader5: Total 0
Shader6: Total 0
Shader7: Total 0
Shader8: Total 0
Shader9: Total 0
Shader10: Total 0
Shader11: Total 0
Shader12: Total 0
Shader13: Total 0
Shader14: Total 0
Shader15: Total 0
Shader16: Total 0
Shader17: Total 0
Shader18: Total 0
Shader19: Total 0
Shader20: Total 0
Shader21: Total 0
Shader22: Total 0
Shader23: Total 0
Shader24: Total 0
Shader25: Total 0
Shader26: Total 0
Shader27: Total 0
Tlb_tot_thresh: 0
========================================Page fault statistics==============================
Shader0: Page_table_access:3503 Page_hit: 3038 Page_miss: 465 Page_hit_rate: 0.867257 Page_fault: 1 Page_pending: 463
Shader1: Page_table_access:3736 Page_hit: 3068 Page_miss: 668 Page_hit_rate: 0.821199 Page_fault: 1 Page_pending: 667
Shader2: Page_table_access:3775 Page_hit: 3107 Page_miss: 668 Page_hit_rate: 0.823046 Page_fault: 3 Page_pending: 661
Shader3: Page_table_access:3624 Page_hit: 2908 Page_miss: 716 Page_hit_rate: 0.802428 Page_fault: 2 Page_pending: 714
Shader4: Page_table_access:3626 Page_hit: 2910 Page_miss: 716 Page_hit_rate: 0.802537 Page_fault: 0 Page_pending: 716
Shader5: Page_table_access:3665 Page_hit: 2969 Page_miss: 696 Page_hit_rate: 0.810095 Page_fault: 0 Page_pending: 696
Shader6: Page_table_access:3719 Page_hit: 3023 Page_miss: 696 Page_hit_rate: 0.812853 Page_fault: 0 Page_pending: 696
Shader7: Page_table_access:3628 Page_hit: 2980 Page_miss: 648 Page_hit_rate: 0.821389 Page_fault: 0 Page_pending: 648
Shader8: Page_table_access:3619 Page_hit: 2971 Page_miss: 648 Page_hit_rate: 0.820945 Page_fault: 0 Page_pending: 648
Shader9: Page_table_access:3673 Page_hit: 3209 Page_miss: 464 Page_hit_rate: 0.873673 Page_fault: 0 Page_pending: 464
Shader10: Page_table_access:3734 Page_hit: 3270 Page_miss: 464 Page_hit_rate: 0.875736 Page_fault: 0 Page_pending: 464
Shader11: Page_table_access:3521 Page_hit: 3057 Page_miss: 464 Page_hit_rate: 0.868219 Page_fault: 1 Page_pending: 464
Shader12: Page_table_access:3514 Page_hit: 3050 Page_miss: 464 Page_hit_rate: 0.867957 Page_fault: 0 Page_pending: 464
Shader13: Page_table_access:3550 Page_hit: 3086 Page_miss: 464 Page_hit_rate: 0.869296 Page_fault: 0 Page_pending: 464
Shader14: Page_table_access:3591 Page_hit: 3127 Page_miss: 464 Page_hit_rate: 0.870788 Page_fault: 0 Page_pending: 464
Shader15: Page_table_access:3560 Page_hit: 3096 Page_miss: 464 Page_hit_rate: 0.869663 Page_fault: 1 Page_pending: 464
Shader16: Page_table_access:3551 Page_hit: 3087 Page_miss: 464 Page_hit_rate: 0.869333 Page_fault: 0 Page_pending: 464
Shader17: Page_table_access:3670 Page_hit: 3206 Page_miss: 464 Page_hit_rate: 0.873569 Page_fault: 0 Page_pending: 464
Shader18: Page_table_access:3728 Page_hit: 3264 Page_miss: 464 Page_hit_rate: 0.875537 Page_fault: 0 Page_pending: 464
Shader19: Page_table_access:3524 Page_hit: 3060 Page_miss: 464 Page_hit_rate: 0.868331 Page_fault: 2 Page_pending: 464
Shader20: Page_table_access:3524 Page_hit: 3060 Page_miss: 464 Page_hit_rate: 0.868331 Page_fault: 1 Page_pending: 464
Shader21: Page_table_access:3558 Page_hit: 3094 Page_miss: 464 Page_hit_rate: 0.869590 Page_fault: 0 Page_pending: 464
Shader22: Page_table_access:3623 Page_hit: 3159 Page_miss: 464 Page_hit_rate: 0.871929 Page_fault: 0 Page_pending: 464
Shader23: Page_table_access:3550 Page_hit: 3086 Page_miss: 464 Page_hit_rate: 0.869296 Page_fault: 0 Page_pending: 464
Shader24: Page_table_access:3520 Page_hit: 3056 Page_miss: 464 Page_hit_rate: 0.868182 Page_fault: 0 Page_pending: 464
Shader25: Page_table_access:3672 Page_hit: 3208 Page_miss: 464 Page_hit_rate: 0.873638 Page_fault: 0 Page_pending: 464
Shader26: Page_table_access:3712 Page_hit: 3248 Page_miss: 464 Page_hit_rate: 0.875000 Page_fault: 0 Page_pending: 464
Shader27: Page_table_access:3523 Page_hit: 3058 Page_miss: 465 Page_hit_rate: 0.868010 Page_fault: 0 Page_pending: 465
Page_talbe_tot_access: 101193 Page_tot_hit: 86455, Page_tot_miss 14738, Page_tot_hit_rate: 0.854358 Page_tot_fault: 12 Page_tot_pending: 14726
Total_memory_access_page_fault: 12, Average_latency 344990.625000
========================================Page threshing statistics==============================
Page_validate: 1024 Page_evict_diry: 0 Page_evict_not_diry: 0
Page_tot_thresh: 0
========================================Memory access statistics==============================
========================================Prefetch statistics==============================
Tot_page_hit: 0, Tot_page_miss: 0, Tot_page_fault: 0
Avg_page_latency: 0.000000, Avg_prefetch_size: -nan, Avg_prefetch_latency: 0.000000
========================================PCI-e statistics==============================
Pcie_read_utilization: 0.696927
[0-25]: 0.050029, [26-50]: 0.000000, [51-75]: 0.949971, [76-100]: 0.000000
Pcie_write_utilization: 0.000000
[0-25]: -nan, [26-50]: -nan, [51-75]: -nan, [76-100]: -nan
F:   222150----T:   754154 	 	 	 Kl: 1 	 Sm: 0 	 T: kernel_launch(359.219452)
F:   223546----T:   228187 	 St: c0000000 Sz: 28672 	 Sm: 0 	 T: memcpy_h2d(3.133693)
F:   228187----T:   233702 	 St: c0007000 Sz: 36864 	 Sm: 0 	 T: memcpy_h2d(3.723835)
F:   233702----T:   238343 	 St: c0010000 Sz: 28672 	 Sm: 0 	 T: memcpy_h2d(3.133693)
F:   238343----T:   243858 	 St: c0017000 Sz: 36864 	 Sm: 0 	 T: memcpy_h2d(3.723835)
F:   243858----T:   246463 	 St: c0020000 Sz: 4096 	 Sm: 0 	 T: memcpy_h2d(1.758947)
F:   246463----T:   262158 	 St: c0021000 Sz: 126976 	 Sm: 0 	 T: memcpy_h2d(10.597569)
F:   262158----T:   264763 	 St: c0210000 Sz: 4096 	 Sm: 0 	 T: memcpy_h2d(1.758947)
F:   264763----T:   273003 	 St: c0211000 Sz: 61440 	 Sm: 0 	 T: memcpy_h2d(5.563808)
F:   273003----T:   275608 	 St: c0220000 Sz: 4096 	 Sm: 0 	 T: memcpy_h2d(1.758947)
F:   275608----T:   283848 	 St: c0221000 Sz: 61440 	 Sm: 0 	 T: memcpy_h2d(5.563808)
F:   283848----T:   286453 	 St: c0040000 Sz: 4096 	 Sm: 0 	 T: memcpy_h2d(1.758947)
F:   286453----T:   317176 	 St: c0041000 Sz: 258048 	 Sm: 0 	 T: memcpy_h2d(20.744766)
F:   317176----T:   319781 	 St: c0230000 Sz: 4096 	 Sm: 0 	 T: memcpy_h2d(1.758947)
F:   319781----T:   335476 	 St: c0231000 Sz: 126976 	 Sm: 0 	 T: memcpy_h2d(10.597569)
F:   335476----T:   338081 	 St: c0250000 Sz: 4096 	 Sm: 0 	 T: memcpy_h2d(1.758947)
F:   338081----T:   368804 	 St: c0251000 Sz: 258048 	 Sm: 0 	 T: memcpy_h2d(20.744766)
F:   368804----T:   371409 	 St: c0080000 Sz: 4096 	 Sm: 0 	 T: memcpy_h2d(1.758947)
F:   371409----T:   432245 	 St: c0081000 Sz: 520192 	 Sm: 0 	 T: memcpy_h2d(41.077652)
F:   433985----T:   436590 	 St: c0290000 Sz: 4096 	 Sm: 0 	 T: memcpy_h2d(1.758947)
F:   436590----T:   497426 	 St: c0291000 Sz: 520192 	 Sm: 0 	 T: memcpy_h2d(41.077652)
F:   497426----T:   500031 	 St: c0100000 Sz: 4096 	 Sm: 0 	 T: memcpy_h2d(1.758947)
F:   500031----T:   621120 	 St: c0101000 Sz: 1044480 	 Sm: 0 	 T: memcpy_h2d(81.761650)
F:   622872----T:   631574 	 St: c0200000 Sz: 65536 	 Sm: 0 	 T: memcpy_h2d(5.875760)
F:   631574----T:   634179 	 St: c0310000 Sz: 4096 	 Sm: 0 	 T: memcpy_h2d(1.758947)
F:   634179----T:   747736 	 St: c0311000 Sz: 978944 	 Sm: 0 	 T: memcpy_h2d(76.675896)
F:   976304----T:  1017986 	 	 	 Kl: 2 	 Sm: 0 	 T: kernel_launch(28.144497)
F:  1240136----T:  1281496 	 	 	 Kl: 3 	 Sm: 0 	 T: kernel_launch(27.927076)
F:  1503646----T:  1545074 	 	 	 Kl: 4 	 Sm: 0 	 T: kernel_launch(27.972992)
F:  1767224----T:  1808737 	 	 	 Kl: 5 	 Sm: 0 	 T: kernel_launch(28.030384)
F:  2030887----T:  2072423 	 	 	 Kl: 6 	 Sm: 0 	 T: kernel_launch(28.045916)
F:  2294573----T:  2335981 	 	 	 Kl: 7 	 Sm: 0 	 T: kernel_launch(27.959486)
F:  2558131----T:  2597492 	 	 	 Kl: 8 	 Sm: 0 	 T: kernel_launch(26.577312)
F:  2819642----T:  2858575 	 	 	 Kl: 9 	 Sm: 0 	 T: kernel_launch(26.288319)
F:  3080725----T:  3119890 	 	 	 Kl: 10 	 Sm: 0 	 T: kernel_launch(26.444969)
F:  3342040----T:  3380966 	 	 	 Kl: 11 	 Sm: 0 	 T: kernel_launch(26.283592)
F:  3603116----T:  3642644 	 	 	 Kl: 12 	 Sm: 0 	 T: kernel_launch(26.690075)
F:  3864794----T:  3903981 	 	 	 Kl: 13 	 Sm: 0 	 T: kernel_launch(26.459824)
F:  4126131----T:  4165427 	 	 	 Kl: 14 	 Sm: 0 	 T: kernel_launch(26.533422)
F:  4387577----T:  4426398 	 	 	 Kl: 15 	 Sm: 0 	 T: kernel_launch(26.212694)
F:  4648548----T:  4687799 	 	 	 Kl: 16 	 Sm: 0 	 T: kernel_launch(26.503038)
F:  4909949----T:  4948886 	 	 	 Kl: 17 	 Sm: 0 	 T: kernel_launch(26.291019)
F:  5171036----T:  5210508 	 	 	 Kl: 18 	 Sm: 0 	 T: kernel_launch(26.652262)
F:  5432658----T:  5471500 	 	 	 Kl: 19 	 Sm: 0 	 T: kernel_launch(26.226873)
F:  5693650----T:  5733123 	 	 	 Kl: 20 	 Sm: 0 	 T: kernel_launch(26.652937)
F:  5955273----T:  5994088 	 	 	 Kl: 21 	 Sm: 0 	 T: kernel_launch(26.208643)
F:  6216238----T:  6255563 	 	 	 Kl: 22 	 Sm: 0 	 T: kernel_launch(26.553005)
F:  6477713----T:  6516618 	 	 	 Kl: 23 	 Sm: 0 	 T: kernel_launch(26.269413)
F:  6738768----T:  6777829 	 	 	 Kl: 24 	 Sm: 0 	 T: kernel_launch(26.374746)
F:  6999979----T:  7038923 	 	 	 Kl: 25 	 Sm: 0 	 T: kernel_launch(26.295746)
F:  7261073----T:  7300524 	 	 	 Kl: 26 	 Sm: 0 	 T: kernel_launch(26.638083)
F:  7522674----T:  7561510 	 	 	 Kl: 27 	 Sm: 0 	 T: kernel_launch(26.222822)
F:  7783660----T:  7823005 	 	 	 Kl: 28 	 Sm: 0 	 T: kernel_launch(26.566509)
F:  8045155----T:  8084135 	 	 	 Kl: 29 	 Sm: 0 	 T: kernel_launch(26.320053)
F:  8306285----T:  8345222 	 	 	 Kl: 30 	 Sm: 0 	 T: kernel_launch(26.291019)
F:  8567372----T:  8606141 	 	 	 Kl: 31 	 Sm: 0 	 T: kernel_launch(26.177582)
F:  8828291----T:  8867788 	 	 	 Kl: 32 	 Sm: 0 	 T: kernel_launch(26.669142)
F:  9089938----T:  9128779 	 	 	 Kl: 33 	 Sm: 0 	 T: kernel_launch(26.226198)
F:  9350929----T:  9390058 	 	 	 Kl: 34 	 Sm: 0 	 T: kernel_launch(26.420662)
F:  9612208----T:  9651155 	 	 	 Kl: 35 	 Sm: 0 	 T: kernel_launch(26.297771)
F:  9873305----T:  9912458 	 	 	 Kl: 36 	 Sm: 0 	 T: kernel_launch(26.436867)
F: 10134608----T: 10173610 	 	 	 Kl: 37 	 Sm: 0 	 T: kernel_launch(26.334909)
F: 10395760----T: 10435163 	 	 	 Kl: 38 	 Sm: 0 	 T: kernel_launch(26.605671)
F: 10657313----T: 10696355 	 	 	 Kl: 39 	 Sm: 0 	 T: kernel_launch(26.361917)
F: 10918505----T: 10957777 	 	 	 Kl: 40 	 Sm: 0 	 T: kernel_launch(26.517218)
F: 10957777----T: 10960382 	 St: 0 Sz: 4096 	 Sm: 0 	 T: device_sync(1.758947)
F: 10957777----T: 10966017 	 St: 0 Sz: 61440 	 Sm: 0 	 T: device_sync(5.563808)
F: 10968622----T: 10971227 	 St: 0 Sz: 4096 	 Sm: 0 	 T: device_sync(1.758947)
F: 10968622----T: 10976862 	 St: 0 Sz: 61440 	 Sm: 0 	 T: device_sync(5.563808)
F: 10979467----T: 10982072 	 St: 0 Sz: 4096 	 Sm: 0 	 T: device_sync(1.758947)
F: 10979467----T: 10995162 	 St: 0 Sz: 126976 	 Sm: 0 	 T: device_sync(10.597569)
F: 10997767----T: 11000372 	 St: 0 Sz: 4096 	 Sm: 0 	 T: device_sync(1.758947)
F: 10997767----T: 11028490 	 St: 0 Sz: 258048 	 Sm: 0 	 T: device_sync(20.744766)
F: 11031095----T: 11033700 	 St: 0 Sz: 4096 	 Sm: 0 	 T: device_sync(1.758947)
F: 11031095----T: 11091931 	 St: 0 Sz: 520192 	 Sm: 0 	 T: device_sync(41.077652)
F: 11094536----T: 11097141 	 St: 0 Sz: 4096 	 Sm: 0 	 T: device_sync(1.758947)
F: 11094536----T: 11215625 	 St: 0 Sz: 1044480 	 Sm: 0 	 T: device_sync(81.761650)
F: 11218230----T: 11220835 	 St: 0 Sz: 4096 	 Sm: 0 	 T: device_sync(1.758947)
F: 11218230----T: 11226470 	 St: 0 Sz: 61440 	 Sm: 0 	 T: device_sync(5.563808)
F: 11229075----T: 11231680 	 St: 0 Sz: 4096 	 Sm: 0 	 T: device_sync(1.758947)
F: 11229075----T: 11237315 	 St: 0 Sz: 61440 	 Sm: 0 	 T: device_sync(5.563808)
F: 11239920----T: 11242525 	 St: 0 Sz: 4096 	 Sm: 0 	 T: device_sync(1.758947)
F: 11239920----T: 11255615 	 St: 0 Sz: 126976 	 Sm: 0 	 T: device_sync(10.597569)
F: 11258220----T: 11260825 	 St: 0 Sz: 4096 	 Sm: 0 	 T: device_sync(1.758947)
F: 11258220----T: 11288943 	 St: 0 Sz: 258048 	 Sm: 0 	 T: device_sync(20.744766)
F: 11291548----T: 11294153 	 St: 0 Sz: 4096 	 Sm: 0 	 T: device_sync(1.758947)
F: 11291548----T: 11352384 	 St: 0 Sz: 520192 	 Sm: 0 	 T: device_sync(41.077652)
F: 11354989----T: 11357594 	 St: 0 Sz: 4096 	 Sm: 0 	 T: device_sync(1.758947)
F: 11354989----T: 11445950 	 St: 0 Sz: 782336 	 Sm: 0 	 T: device_sync(61.418636)
Tot_prefetch_time: 0(cycle), 0.000000(us)
Tot_kernel_exec_time: 2071777(cycle), 1398.904175(us)
Tot_kernel_exec_time_and_fault_time: 2871517(cycle), 1938.904175(us)
Tot_memcpy_h2d_time: 520698(cycle), 351.585419(us)
Tot_memcpy_d2h_time: 0(cycle), 0.000000(us)
Tot_memcpy_time: 520698(cycle), 351.585419(us)
Tot_devicesync_time: 490778(cycle), 331.382843(us)
Tot_writeback_time: 0(cycle), 0.000000(us)
Tot_memcpy_d2h_sync_wb_time: 490778(cycle), 331.382843(us)
GPGPU-Sim: *** exit detected ***
