

        *** GPGPU-Sim Simulator Version 3.2.2  [build gpgpu-sim_git-commit-3860d9b353b66e89e1a9ca14f6569fffcf247a15_modified_0] ***


GPGPU-Sim PTX: simulation mode 0 (can change with PTX_SIM_MODE_FUNC environment variable:
               1=functional simulation only, 0=detailed performance simulator)
GPGPU-Sim: Configuration options:

-network_mode                           1 # Interconnection network mode
-inter_config_file   config_fermi_islip.icnt # Interconnection network config file
-gpgpu_ptx_use_cuobjdump                    1 # Use cuobjdump to extract ptx and sass from binaries
-gpgpu_experimental_lib_support                    0 # Try to extract code from cuda libraries [Broken because of unknown cudaGetExportTable]
-gpgpu_ptx_convert_to_ptxplus                    0 # Convert SASS (native ISA) to ptxplus and run ptxplus
-gpgpu_ptx_force_max_capability                   20 # Force maximum compute capability
-gpgpu_ptx_inst_debug_to_file                    0 # Dump executed instructions' debug information to file
-gpgpu_ptx_inst_debug_file       inst_debug.txt # Executed instructions' debug output file
-gpgpu_ptx_inst_debug_thread_uid                    1 # Thread UID for executed instructions' debug output
-gpgpu_simd_model                       1 # 1 = post-dominator
-gpgpu_shader_core_pipeline              2048:32 # shader core pipeline config, i.e., {<nthread>:<warpsize>}
-gpgpu_tex_cache:l1  16:128:24,L:R:m:N:L,F:128:4,128:2 # per-shader L1 texture cache  (READ-ONLY) config  {<nsets>:<bsize>:<assoc>,<rep>:<wr>:<alloc>:<wr_alloc>,<mshr>:<N>:<merge>,<mq>:<rf>}
-gpgpu_const_cache:l1 128:64:2,L:R:f:N:L,A:2:64,4 # per-shader L1 constant memory cache  (READ-ONLY) config  {<nsets>:<bsize>:<assoc>,<rep>:<wr>:<alloc>:<wr_alloc>,<mshr>:<N>:<merge>,<mq>} 
-gpgpu_cache:il1     8:128:4,L:R:f:N:L,A:2:48,4 # shader L1 instruction cache config  {<nsets>:<bsize>:<assoc>,<rep>:<wr>:<alloc>:<wr_alloc>,<mshr>:<N>:<merge>,<mq>} 
-gpgpu_cache:dl1     64:128:6,L:L:m:N:H,A:128:8,8 # per-shader L1 data cache config  {<nsets>:<bsize>:<assoc>,<rep>:<wr>:<alloc>:<wr_alloc>,<mshr>:<N>:<merge>,<mq> | none}
-gpgpu_cache:dl1PrefL1                 none # per-shader L1 data cache config  {<nsets>:<bsize>:<assoc>,<rep>:<wr>:<alloc>:<wr_alloc>,<mshr>:<N>:<merge>,<mq> | none}
-gpgpu_cache:dl1PrefShared                 none # per-shader L1 data cache config  {<nsets>:<bsize>:<assoc>,<rep>:<wr>:<alloc>:<wr_alloc>,<mshr>:<N>:<merge>,<mq> | none}
-gmem_skip_L1D                          1 # global memory access skip L1D cache (implements -Xptxas -dlcm=cg, default=no skip)
-gpgpu_perfect_mem                      0 # enable perfect memory mode (no cache miss)
-n_regfile_gating_group                    4 # group of lanes that should be read/written together)
-gpgpu_clock_gated_reg_file                    0 # enable clock gated reg file for power calculations
-gpgpu_clock_gated_lanes                    0 # enable clock gated lanes for power calculations
-gpgpu_shader_registers                65536 # Number of registers per shader core. Limits number of concurrent CTAs. (default 8192)
-gpgpu_shader_cta                      32 # Maximum number of concurrent CTAs in shader (default 8)
-gpgpu_num_cta_barriers                   16 # Maximum number of named barriers per CTA (default 16)
-gpgpu_n_clusters                      28 # number of processing clusters
-gpgpu_n_cores_per_cluster                    1 # number of simd cores per cluster
-gpgpu_n_cluster_ejection_buffer_size                    8 # number of packets in ejection buffer
-gpgpu_n_ldst_response_buffer_size                    2 # number of response packets in ld/st unit ejection buffer
-gpgpu_shmem_size                   16384 # Size of shared memory per shader core (default 16kB)
-gpgpu_shmem_size                   98304 # Size of shared memory per shader core (default 16kB)
-gpgpu_shmem_size_PrefL1                16384 # Size of shared memory per shader core (default 16kB)
-gpgpu_shmem_size_PrefShared                16384 # Size of shared memory per shader core (default 16kB)
-gpgpu_shmem_num_banks                   32 # Number of banks in the shared memory in each shader core (default 16)
-gpgpu_shmem_limited_broadcast                    0 # Limit shared memory to do one broadcast per cycle (default on)
-gpgpu_shmem_warp_parts                    1 # Number of portions a warp is divided into for shared memory bank conflict check 
-gpgpu_warpdistro_shader                   -1 # Specify which shader core to collect the warp size distribution from
-gpgpu_warp_issue_shader                    0 # Specify which shader core to collect the warp issue distribution from
-gpgpu_local_mem_map                    1 # Mapping from local memory space address to simulated GPU physical address space (default = enabled)
-gpgpu_num_reg_banks                   32 # Number of register banks (default = 8)
-gpgpu_reg_bank_use_warp_id                    0 # Use warp ID in mapping registers to banks (default = off)
-gpgpu_operand_collector_num_units_sp                   20 # number of collector units (default = 4)
-gpgpu_operand_collector_num_units_sfu                    4 # number of collector units (default = 4)
-gpgpu_operand_collector_num_units_mem                    8 # number of collector units (default = 2)
-gpgpu_operand_collector_num_units_gen                    0 # number of collector units (default = 0)
-gpgpu_operand_collector_num_in_ports_sp                    4 # number of collector unit in ports (default = 1)
-gpgpu_operand_collector_num_in_ports_sfu                    1 # number of collector unit in ports (default = 1)
-gpgpu_operand_collector_num_in_ports_mem                    1 # number of collector unit in ports (default = 1)
-gpgpu_operand_collector_num_in_ports_gen                    0 # number of collector unit in ports (default = 0)
-gpgpu_operand_collector_num_out_ports_sp                    4 # number of collector unit in ports (default = 1)
-gpgpu_operand_collector_num_out_ports_sfu                    1 # number of collector unit in ports (default = 1)
-gpgpu_operand_collector_num_out_ports_mem                    1 # number of collector unit in ports (default = 1)
-gpgpu_operand_collector_num_out_ports_gen                    0 # number of collector unit in ports (default = 0)
-gpgpu_coalesce_arch                   13 # Coalescing arch (default = 13, anything else is off for now)
-gpgpu_num_sched_per_core                    2 # Number of warp schedulers per core
-gpgpu_max_insn_issue_per_warp                    2 # Max number of instructions that can be issued per warp in one cycle by scheduler
-gpgpu_simt_core_sim_order                    1 # Select the simulation order of cores in a cluster (0=Fix, 1=Round-Robin)
-gpgpu_pipeline_widths        4,1,1,4,1,1,6 # Pipeline widths ID_OC_SP,ID_OC_SFU,ID_OC_MEM,OC_EX_SP,OC_EX_SFU,OC_EX_MEM,EX_WB
-gpgpu_num_sp_units                     4 # Number of SP units (default=1)
-gpgpu_num_sfu_units                    1 # Number of SF units (default=1)
-gpgpu_num_mem_units                    1 # Number if ldst units (default=1) WARNING: not hooked up to anything
-gpgpu_scheduler                      gto # Scheduler configuration: < lrr | gto | two_level_active > If two_level_active:<num_active_warps>:<inner_prioritization>:<outer_prioritization>For complete list of prioritization values see shader.h enum scheduler_prioritization_typeDefault: gto
-gpgpu_concurrent_kernel_sm                    0 # Support concurrent kernels on a SM (default = disabled)
-tlb_size                            4096 # Number of tlb entries per SM.
-gpgpu_dram_scheduler                    1 # 0 = fifo, 1 = FR-FCFS (defaul)
-gpgpu_dram_partition_queues              8:8:8:8 # i2$:$2d:d2$:$2i
-l2_ideal                               0 # Use a ideal L2 cache that always hit
-gpgpu_cache:dl2     64:128:16,L:B:m:W:L,A:1024:1024,4:0,32 # unified banked L2 data cache config  {<nsets>:<bsize>:<assoc>,<rep>:<wr>:<alloc>:<wr_alloc>,<mshr>:<N>:<merge>,<mq>}
-gpgpu_cache:dl2_texture_only                    0 # L2 cache used for texture only
-gpgpu_n_mem                           11 # number of memory modules (e.g. memory controllers) in gpu
-gpgpu_n_sub_partition_per_mchannel                    2 # number of memory subpartition in each memory module
-gpgpu_n_mem_per_ctrlr                    1 # number of memory chips per memory controller
-gpgpu_memlatency_stat                   14 # track and display latency statistics 0x2 enables MC, 0x4 enables queue logs
-gpgpu_frfcfs_dram_sched_queue_size                   64 # 0 = unlimited (default); # entries per chip
-gpgpu_dram_return_queue_size                  116 # 0 = unlimited (default); # entries per chip
-gpgpu_dram_buswidth                    4 # default = 4 bytes (8 bytes per cycle at DDR)
-gpgpu_dram_burst_length                    8 # Burst length of each DRAM request (default = 4 data bus cycle)
-dram_data_command_freq_ratio                    4 # Frequency ratio between DRAM data bus and command bus (default = 2 times, i.e. DDR)
-gpgpu_dram_timing_opt nbk=16:CCD=2:RRD=6:RCD=12:RAS=28:RP=12:RC=40: CL=12:WL=4:CDLR=5:WR=12:nbkgrp=1:CCDL=0:RTPL=0 # DRAM timing parameters = {nbk:tCCD:tRRD:tRCD:tRAS:tRP:tRC:CL:WL:tCDLR:tWR:nbkgrp:tCCDL:tRTPL}
-rop_latency                          120 # ROP queue latency (default 85)
-dram_latency                         100 # DRAM latency (default 30)
-gpgpu_mem_addr_mapping dramid@8;00000000.00000000.00000000.00000000.0000RRRR.RRRRRRRR.RBBBCCCC.BCCSSSSS # mapping memory address to dram model {dramid@<start bit>;<memory address map>}
-gpgpu_mem_addr_test                    0 # run sweep test to check address mapping for aliased address
-gpgpu_mem_address_mask                    1 # 0 = old addressing mask, 1 = new addressing mask, 2 = new add. mask + flipped bank sel and chip sel bits
-gpuwattch_xml_file  gpuwattch_geforcegtx1080ti.xml # GPUWattch XML file
-power_simulation_enabled                    1 # Turn on power simulator (1=On, 0=Off)
-power_per_cycle_dump                    0 # Dump detailed power output each cycle
-power_trace_enabled                    0 # produce a file for the power trace (1=On, 0=Off)
-power_trace_zlevel                     6 # Compression level of the power trace output log (0=no comp, 9=highest)
-steady_power_levels_enabled                    0 # produce a file for the steady power levels (1=On, 0=Off)
-steady_state_definition                  8:4 # allowed deviation:number of samples
-gpgpu_max_cycle                        0 # terminates gpu simulation early (0 = no limit)
-gpgpu_max_insn                         0 # terminates gpu simulation early (0 = no limit)
-gpgpu_max_cta                          0 # terminates gpu simulation early (0 = no limit)
-gpgpu_runtime_stat                   500 # display runtime statistics such as dram utilization {<freq>:<flag>}
-liveness_message_freq                    1 # Minimum number of seconds between simulation liveness messages (0 = always print)
-gpgpu_flush_l1_cache                    0 # Flush L1 cache at the end of each kernel call
-gpgpu_flush_l2_cache                    0 # Flush L2 cache at the end of each kernel call
-gpgpu_deadlock_detect                    0 # Stop the simulation at deadlock (1=on (default), 0=off)
-gpgpu_ptx_instruction_classification                    0 # if enabled will classify ptx instruction types per kernel (Max 255 kernels now)
-gpgpu_ptx_sim_mode                     0 # Select between Performance (default) or Functional simulation (1)
-gpgpu_clock_domains 1481.0:2962.0:1481.0:2750.0 # Clock Domain Frequencies in MhZ {<Core Clock>:<ICNT Clock>:<L2 Clock>:<DRAM Clock>}
-gpgpu_max_concurrent_kernel                    8 # maximum kernels that can run concurrently on GPU
-gpgpu_cflog_interval                    0 # Interval between each snapshot in control flow logger
-visualizer_enabled                     0 # Turn on visualizer output (1=On, 0=Off)
-visualizer_outputfile                 NULL # Specifies the output log file for visualizer
-visualizer_zlevel                      6 # Compression level of the visualizer output log (0=no comp, 9=highest)
-trace_enabled                          0 # Turn on traces
-trace_components                    none # comma seperated list of traces to enable. Complete list found in trace_streams.tup. Default none
-trace_sampling_core                    0 # The core which is printed using CORE_DPRINTF. Default 0
-trace_sampling_memory_partition                   -1 # The memory partition which is printed using MEMPART_DPRINTF. Default -1 (i.e. all)
-gddr_size                            1GB # Size of GDDR in MB/GB.(GLOBAL_HEAP_START, GLOBAL_HEAP_START + gddr_size) would be used for unmanged memory, (GLOBAL_HEAP_START + gddr_size, GLOBAL_HEAP_START + gddr_size*2) would be used for managed memory. 
-page_table_walk_latency                  100 # Average page table walk latency (in core cycle).
-eviction_policy                        0 # Select page eviction policy
-reserve_accessed_page_percent                    0 # Percentage of accessed pages reserved from eviction in hope that they will be accessed in next iteration.
-percentage_of_free_page_buffer                    0 # Percentage of free page buffer to trigger the page eviction.
-page_size                            4KB # GDDR page size, only 4KB/2MB avaliable.
-pcie_bandwith                   16.0GB/s # PCI-e bandwith per direction, in GB/s.
-enable_nvlink                          0 # Enable nvlink 2.0, 150.0GB/s
-enable_rdma                            0 # Enable remote direct memory access
-migrate_threshold                     10 # Access counter threshold for migrating the page from cpu to gpu
-sim_prof_enable                        1 # Enable gpgpu-sim profiler
-hardware_prefetch                      0 # Select gpgpu-sim hardware prefetcher
-hwprefetch_oversub                     0 # Select gpgpu-sim hardware prefetcher under over-subscription
-page_fault_latency                 66645 # Average fault latency (in core cycle).
-enable_accurate_simulation                    0 # Enable page fault functional simulation.
-enable_ptx_file_line_stats                    1 # Turn on PTX source line statistic profiling. (1 = On)
-ptx_line_stats_filename gpgpu_inst_stats.txt # Output file for PTX source line statistics.
-gpgpu_kernel_launch_latency               222150 # Kernel launch latency in cycles. Default: 0
-gpgpu_cdp_enabled                      0 # Turn on CDP
-save_embedded_ptx                      0 # saves ptx files embedded in binary as <n>.ptx
-keep                                   0 # keep intermediate files created by GPGPU-Sim when interfacing with external programs
-gpgpu_ptx_save_converted_ptxplus                    0 # Saved converted ptxplus to a file
-ptx_opcode_latency_int         4,13,4,5,145 # Opcode latencies for integers <ADD,MAX,MUL,MAD,DIV>Default 1,1,19,25,145
-ptx_opcode_latency_fp          4,13,4,5,39 # Opcode latencies for single precision floating points <ADD,MAX,MUL,MAD,DIV>Default 1,1,1,1,30
-ptx_opcode_latency_dp         8,19,8,8,330 # Opcode latencies for double precision floating points <ADD,MAX,MUL,MAD,DIV>Default 8,8,8,8,335
-ptx_opcode_initiation_int            1,2,2,2,8 # Opcode initiation intervals for integers <ADD,MAX,MUL,MAD,DIV>Default 1,1,4,4,32
-ptx_opcode_initiation_fp            1,2,1,1,4 # Opcode initiation intervals for single precision floating points <ADD,MAX,MUL,MAD,DIV>Default 1,1,1,1,5
-ptx_opcode_initiation_dp          1,2,1,1,130 # Opcode initiation intervals for double precision floating points <ADD,MAX,MUL,MAD,DIV>Default 8,8,8,8,130
-cdp_latency         7200,8000,100,12000,1600 # CDP API latency <cudaStreamCreateWithFlags, cudaGetParameterBufferV2_init_perWarp, cudaGetParameterBufferV2_perKernel, cudaLaunchDeviceV2_init_perWarp, cudaLaunchDevicV2_perKernel>Default 7200,8000,100,12000,1600
DRAM Timing Options:
nbk                                    16 # number of banks
CCD                                     2 # column to column delay
RRD                                     6 # minimal delay between activation of rows in different banks
RCD                                    12 # row to column delay
RAS                                    28 # time needed to activate row
RP                                     12 # time needed to precharge (deactivate) row
RC                                     40 # row cycle time
CDLR                                    5 # switching from write to read (changes tWTR)
WR                                     12 # last data-in to row precharge
CL                                     12 # CAS latency
WL                                      4 # Write latency
nbkgrp                                  1 # number of bank groups
CCDL                                    0 # column to column delay between accesses to different bank groups
RTPL                                    0 # read to precharge delay between accesses to different bank groups
Total number of memory sub partition = 22
addr_dec_mask[CHIP]  = 0000000000000000 	high:64 low:0
addr_dec_mask[BK]    = 0000000000007080 	high:15 low:7
addr_dec_mask[ROW]   = 000000000fff8000 	high:28 low:15
addr_dec_mask[COL]   = 0000000000000f7f 	high:12 low:0
addr_dec_mask[BURST] = 000000000000001f 	high:5 low:0
sub_partition_id_mask = 0000000000000080
GPGPU-Sim uArch: clock freqs: 1481000000.000000:2962000000.000000:1481000000.000000:2750000000.000000
GPGPU-Sim uArch: clock periods: 0.00000000067521944632:0.00000000033760972316:0.00000000067521944632:0.00000000036363636364
*** Initializing Memory Statistics ***
GPGPU-Sim uArch: interconnect node map (shaderID+MemID to icntID)
GPGPU-Sim uArch: Memory nodes ID start from index: 28
GPGPU-Sim uArch:    0   1   2   3   4   5   6
GPGPU-Sim uArch:    7   8   9  10  11  12  13
GPGPU-Sim uArch:   14  15  16  17  18  19  20
GPGPU-Sim uArch:   21  22  23  24  25  26  27
GPGPU-Sim uArch:   28  29  30  31  32  33  34
GPGPU-Sim uArch:   35  36  37  38  39  40  41
GPGPU-Sim uArch:   42  43  44  45  46  47  48
GPGPU-Sim uArch:   49
GPGPU-Sim uArch: interconnect node reverse map (icntID to shaderID+MemID)
GPGPU-Sim uArch: Memory nodes start from ID: 28
GPGPU-Sim uArch:    0   1   2   3   4   5   6
GPGPU-Sim uArch:    7   8   9  10  11  12  13
GPGPU-Sim uArch:   14  15  16  17  18  19  20
GPGPU-Sim uArch:   21  22  23  24  25  26  27
GPGPU-Sim uArch:   28  29  30  31  32  33  34
GPGPU-Sim uArch:   35  36  37  38  39  40  41
GPGPU-Sim uArch:   42  43  44  45  46  47  48
GPGPU-Sim uArch:   49
618970edab506f240ecb6d7caa01fc04  /home/gpuser/Desktop/gpgpu-sim_UVMSmart/benchmarks/Managed/backprop/backprop
GPGPU-Sim uArch: performance model initialization complete.
GPGPU-Sim PTX: __cudaRegisterFatBinary, fat_cubin_handle = 1, filename=default
self exe links to: /home/gpuser/Desktop/gpgpu-sim_UVMSmart/benchmarks/Managed/backprop/backprop
Running md5sum using "md5sum /home/gpuser/Desktop/gpgpu-sim_UVMSmart/benchmarks/Managed/backprop/backprop "
Parsing file _cuobjdump_complete_output_x6sEJE
######### cuobjdump parser ########
## Adding new section ELF
Adding arch: sm_20
Adding identifier: default
## Adding new section ELF
Adding arch: sm_20
Adding identifier: default
## Adding new section PTX
Adding ptx filename: _cuobjdump_1.ptx
Adding arch: sm_20
Adding identifier: default
Done parsing!!!
GPGPU-Sim PTX: __cudaRegisterFunction _Z24bpnn_adjust_weights_cudaPfiS_iS_S_ : hostFun 0x0x402d5b, fat_cubin_handle = 1
GPGPU-Sim PTX: allocating shared region for "_Z22bpnn_layerforward_CUDAPfS_S_S_ii$__cuda_local_var_17900_34_non_const_input_node" from 0x0 to 0x40 (shared memory space)
GPGPU-Sim PTX: allocating shared region for "_Z22bpnn_layerforward_CUDAPfS_S_S_ii$__cuda_local_var_17901_34_non_const_weight_matrix" from 0x80 to 0x480 (shared memory space)
GPGPU-Sim PTX: instruction assembly for function '_Z22bpnn_layerforward_CUDAPfS_S_S_ii'...   done.
GPGPU-Sim PTX: finding reconvergence points for '_Z22bpnn_layerforward_CUDAPfS_S_S_ii'...
GPGPU-Sim PTX: Finding dominators for '_Z22bpnn_layerforward_CUDAPfS_S_S_ii'...
GPGPU-Sim PTX: Finding immediate dominators for '_Z22bpnn_layerforward_CUDAPfS_S_S_ii'...
GPGPU-Sim PTX: Finding postdominators for '_Z22bpnn_layerforward_CUDAPfS_S_S_ii'...
GPGPU-Sim PTX: Finding immediate postdominators for '_Z22bpnn_layerforward_CUDAPfS_S_S_ii'...
GPGPU-Sim PTX: pre-decoding instructions for '_Z22bpnn_layerforward_CUDAPfS_S_S_ii'...
GPGPU-Sim PTX: reconvergence points for _Z22bpnn_layerforward_CUDAPfS_S_S_ii...
GPGPU-Sim PTX:  1 (potential) branch divergence @  PC=0x068 (_1.ptx:47) @%p2 bra BB0_2;
GPGPU-Sim PTX:    immediate post dominator      @  PC=0x0a0 (_1.ptx:57) cvta.to.global.u64 %rd3, %rd8;
GPGPU-Sim PTX:  2 (potential) branch divergence @  PC=0x168 (_1.ptx:82) @%p3 bra BB0_7;
GPGPU-Sim PTX:    immediate post dominator      @  PC=0x250 (_1.ptx:119) setp.eq.s32%p1, %r3, 0;
GPGPU-Sim PTX:  3 (potential) branch divergence @  PC=0x1c8 (_1.ptx:97) @%p4 bra BB0_6;
GPGPU-Sim PTX:    immediate post dominator      @  PC=0x228 (_1.ptx:112) bar.sync 0;
GPGPU-Sim PTX:  4 (potential) branch divergence @  PC=0x248 (_1.ptx:116) @%p5 bra BB0_4;
GPGPU-Sim PTX:    immediate post dominator      @  PC=0x250 (_1.ptx:119) setp.eq.s32%p1, %r3, 0;
GPGPU-Sim PTX:  5 (potential) branch divergence @  PC=0x270 (_1.ptx:123) @!%p1 bra BB0_9;
GPGPU-Sim PTX:    immediate post dominator      @  PC=0x2c8 (_1.ptx:138) ret;
GPGPU-Sim PTX:  6 (potential) branch divergence @  PC=0x278 (_1.ptx:124) bra.uni BB0_8;
GPGPU-Sim PTX:    immediate post dominator      @  PC=0x280 (_1.ptx:127) cvt.u32.u64%r20, %rd1;
GPGPU-Sim PTX: ... end of reconvergence points for _Z22bpnn_layerforward_CUDAPfS_S_S_ii
GPGPU-Sim PTX: ... done pre-decoding instructions for '_Z22bpnn_layerforward_CUDAPfS_S_S_ii'.
GPGPU-Sim PTX: instruction assembly for function '_Z24bpnn_adjust_weights_cudaPfiS_iS_S_'...   done.
GPGPU-Sim PTX: finding reconvergence points for '_Z24bpnn_adjust_weights_cudaPfiS_iS_S_'...
GPGPU-Sim PTX: Finding dominators for '_Z24bpnn_adjust_weights_cudaPfiS_iS_S_'...
GPGPU-Sim PTX: Finding immediate dominators for '_Z24bpnn_adjust_weights_cudaPfiS_iS_S_'...
GPGPU-Sim PTX: Finding postdominators for '_Z24bpnn_adjust_weights_cudaPfiS_iS_S_'...
GPGPU-Sim PTX: Finding immediate postdominators for '_Z24bpnn_adjust_weights_cudaPfiS_iS_S_'...
GPGPU-Sim PTX: pre-decoding instructions for '_Z24bpnn_adjust_weights_cudaPfiS_iS_S_'...
GPGPU-Sim PTX: reconvergence points for _Z24bpnn_adjust_weights_cudaPfiS_iS_S_...
GPGPU-Sim PTX:  1 (potential) branch divergence @  PC=0x470 (_1.ptx:210) @%p1 bra BB1_2;
GPGPU-Sim PTX:    immediate post dominator      @  PC=0x530 (_1.ptx:237) ret;
GPGPU-Sim PTX: ... end of reconvergence points for _Z24bpnn_adjust_weights_cudaPfiS_iS_S_
GPGPU-Sim PTX: ... done pre-decoding instructions for '_Z24bpnn_adjust_weights_cudaPfiS_iS_S_'.
GPGPU-Sim PTX: finished parsing EMBEDDED .ptx file _1.ptx
Adding _cuobjdump_1.ptx with cubin handle 1
GPGPU-Sim PTX: extracting embedded .ptx to temporary file "_ptx_DGgMhY"
Running: cat _ptx_DGgMhY | sed 's/.version 1.5/.version 1.4/' | sed 's/, texmode_independent//' | sed 's/\(\.extern \.const\[1\] .b8 \w\+\)\[\]/\1\[1\]/' | sed 's/const\[.\]/const\[0\]/g' > _ptx2_ZtUWPh
GPGPU-Sim PTX: generating ptxinfo using "$CUDA_INSTALL_PATH/bin/ptxas --gpu-name=sm_20 -v _ptx2_ZtUWPh --output-file  /dev/null 2> _ptx_DGgMhYinfo"
GPGPU-Sim PTX: Kernel '_Z24bpnn_adjust_weights_cudaPfiS_iS_S_' : regs=22, lmem=0, smem=0, cmem=80
GPGPU-Sim PTX: Kernel '_Z22bpnn_layerforward_CUDAPfS_S_S_ii' : regs=11, lmem=0, smem=1088, cmem=72
GPGPU-Sim PTX: removing ptxinfo using "rm -f _ptx_DGgMhY _ptx2_ZtUWPh _ptx_DGgMhYinfo"
GPGPU-Sim PTX: loading globals with explicit initializers... 
GPGPU-Sim PTX: finished loading globals (0 bytes total).
GPGPU-Sim PTX: loading constants with explicit initializers...  done.
GPGPU-Sim PTX: __cudaRegisterFunction _Z22bpnn_layerforward_CUDAPfS_S_S_ii : hostFun 0x0x402c0a, fat_cubin_handle = 1
Random number generator seed: 7
cudaMallocManaged called
cudaMallocManaged called
cudaMallocManaged called
cudaMallocManaged called
cudaMallocManaged called
cudaMallocManaged called
cudaMallocManaged called
cudaMallocManaged called
cudaMallocManaged called
cudaMallocManaged called
cudaMallocManaged called
Input layer size : 18000
Starting training kernel
Performing GPU computation

GPGPU-Sim PTX: cudaLaunch for 0x0x402c0a (mode=performance simulation) on stream 0
GPGPU-Sim PTX: pushing kernel '_Z22bpnn_layerforward_CUDAPfS_S_S_ii' to stream 0, gridDim= (1,1125,1) blockDim = (16,16,1) 
GPGPU-Sim uArch: Shader 1 bind to kernel 1 '_Z22bpnn_layerforward_CUDAPfS_S_S_ii'
GPGPU-Sim uArch: CTA/core = 8, limited by: threads
GPGPU-Sim uArch: Shader 2 bind to kernel 1 '_Z22bpnn_layerforward_CUDAPfS_S_S_ii'
GPGPU-Sim uArch: Shader 3 bind to kernel 1 '_Z22bpnn_layerforward_CUDAPfS_S_S_ii'
GPGPU-Sim uArch: Shader 4 bind to kernel 1 '_Z22bpnn_layerforward_CUDAPfS_S_S_ii'
GPGPU-Sim uArch: Shader 5 bind to kernel 1 '_Z22bpnn_layerforward_CUDAPfS_S_S_ii'
GPGPU-Sim uArch: Shader 6 bind to kernel 1 '_Z22bpnn_layerforward_CUDAPfS_S_S_ii'
GPGPU-Sim uArch: Shader 7 bind to kernel 1 '_Z22bpnn_layerforward_CUDAPfS_S_S_ii'
GPGPU-Sim uArch: Shader 8 bind to kernel 1 '_Z22bpnn_layerforward_CUDAPfS_S_S_ii'
GPGPU-Sim uArch: Shader 9 bind to kernel 1 '_Z22bpnn_layerforward_CUDAPfS_S_S_ii'
GPGPU-Sim uArch: Shader 10 bind to kernel 1 '_Z22bpnn_layerforward_CUDAPfS_S_S_ii'
GPGPU-Sim uArch: Shader 11 bind to kernel 1 '_Z22bpnn_layerforward_CUDAPfS_S_S_ii'
GPGPU-Sim uArch: Shader 12 bind to kernel 1 '_Z22bpnn_layerforward_CUDAPfS_S_S_ii'
GPGPU-Sim uArch: Shader 13 bind to kernel 1 '_Z22bpnn_layerforward_CUDAPfS_S_S_ii'
GPGPU-Sim uArch: Shader 14 bind to kernel 1 '_Z22bpnn_layerforward_CUDAPfS_S_S_ii'
GPGPU-Sim uArch: Shader 15 bind to kernel 1 '_Z22bpnn_layerforward_CUDAPfS_S_S_ii'
GPGPU-Sim uArch: Shader 16 bind to kernel 1 '_Z22bpnn_layerforward_CUDAPfS_S_S_ii'
GPGPU-Sim uArch: Shader 17 bind to kernel 1 '_Z22bpnn_layerforward_CUDAPfS_S_S_ii'
GPGPU-Sim uArch: Shader 18 bind to kernel 1 '_Z22bpnn_layerforward_CUDAPfS_S_S_ii'
GPGPU-Sim uArch: Shader 19 bind to kernel 1 '_Z22bpnn_layerforward_CUDAPfS_S_S_ii'
GPGPU-Sim uArch: Shader 20 bind to kernel 1 '_Z22bpnn_layerforward_CUDAPfS_S_S_ii'
GPGPU-Sim uArch: Shader 21 bind to kernel 1 '_Z22bpnn_layerforward_CUDAPfS_S_S_ii'
GPGPU-Sim uArch: Shader 22 bind to kernel 1 '_Z22bpnn_layerforward_CUDAPfS_S_S_ii'
GPGPU-Sim uArch: Shader 23 bind to kernel 1 '_Z22bpnn_layerforward_CUDAPfS_S_S_ii'
GPGPU-Sim uArch: Shader 24 bind to kernel 1 '_Z22bpnn_layerforward_CUDAPfS_S_S_ii'
GPGPU-Sim uArch: Shader 25 bind to kernel 1 '_Z22bpnn_layerforward_CUDAPfS_S_S_ii'
GPGPU-Sim uArch: Shader 26 bind to kernel 1 '_Z22bpnn_layerforward_CUDAPfS_S_S_ii'
GPGPU-Sim uArch: Shader 27 bind to kernel 1 '_Z22bpnn_layerforward_CUDAPfS_S_S_ii'
GPGPU-Sim uArch: Shader 0 bind to kernel 1 '_Z22bpnn_layerforward_CUDAPfS_S_S_ii'
Destroy streams for kernel 1: size 0
kernel_name = _Z22bpnn_layerforward_CUDAPfS_S_S_ii 
kernel_launch_uid = 1 
gpu_sim_cycle = 876491
gpu_sim_insn = 30888000
gpu_ipc =      35.2405
gpu_tot_sim_cycle = 1098641
gpu_tot_sim_insn = 30888000
gpu_tot_ipc =      28.1147
gpu_tot_issued_cta = 1125
max_total_param_size = 0
gpu_stall_dramfull = 0
gpu_stall_icnt2sh    = 11676
partiton_reqs_in_parallel = 19282802
partiton_reqs_in_parallel_total    = 0
partiton_level_parallism =      22.0000
partiton_level_parallism_total  =      17.5515
partiton_reqs_in_parallel_util = 19282802
partiton_reqs_in_parallel_util_total    = 0
gpu_sim_cycle_parition_util = 876491
gpu_tot_sim_cycle_parition_util    = 0
partiton_level_parallism_util =      22.0000
partiton_level_parallism_util_total  =      22.0000
partiton_replys_in_parallel = 54758
partiton_replys_in_parallel_total    = 0
L2_BW  =       5.9215 GB/Sec
L2_BW_total  =       4.7242 GB/Sec
gpu_total_sim_rate=10456

========= Core cache stats =========
L1I_cache:
	L1I_total_cache_accesses = 642375
	L1I_total_cache_misses = 3249
	L1I_total_cache_miss_rate = 0.0051
	L1I_total_cache_pending_hits = 0
	L1I_total_cache_reservation_fails = 6846
L1D_cache:
	L1D_cache_core[0]: Access = 0, Miss = 0, Miss_rate = -nan, Pending_hits = 0, Reservation_fails = 0
	L1D_cache_core[1]: Access = 0, Miss = 0, Miss_rate = -nan, Pending_hits = 0, Reservation_fails = 0
	L1D_cache_core[2]: Access = 0, Miss = 0, Miss_rate = -nan, Pending_hits = 0, Reservation_fails = 0
	L1D_cache_core[3]: Access = 0, Miss = 0, Miss_rate = -nan, Pending_hits = 0, Reservation_fails = 0
	L1D_cache_core[4]: Access = 0, Miss = 0, Miss_rate = -nan, Pending_hits = 0, Reservation_fails = 0
	L1D_cache_core[5]: Access = 0, Miss = 0, Miss_rate = -nan, Pending_hits = 0, Reservation_fails = 0
	L1D_cache_core[6]: Access = 0, Miss = 0, Miss_rate = -nan, Pending_hits = 0, Reservation_fails = 0
	L1D_cache_core[7]: Access = 0, Miss = 0, Miss_rate = -nan, Pending_hits = 0, Reservation_fails = 0
	L1D_cache_core[8]: Access = 0, Miss = 0, Miss_rate = -nan, Pending_hits = 0, Reservation_fails = 0
	L1D_cache_core[9]: Access = 0, Miss = 0, Miss_rate = -nan, Pending_hits = 0, Reservation_fails = 0
	L1D_cache_core[10]: Access = 0, Miss = 0, Miss_rate = -nan, Pending_hits = 0, Reservation_fails = 0
	L1D_cache_core[11]: Access = 0, Miss = 0, Miss_rate = -nan, Pending_hits = 0, Reservation_fails = 0
	L1D_cache_core[12]: Access = 0, Miss = 0, Miss_rate = -nan, Pending_hits = 0, Reservation_fails = 0
	L1D_cache_core[13]: Access = 0, Miss = 0, Miss_rate = -nan, Pending_hits = 0, Reservation_fails = 0
	L1D_cache_core[14]: Access = 0, Miss = 0, Miss_rate = -nan, Pending_hits = 0, Reservation_fails = 0
	L1D_cache_core[15]: Access = 0, Miss = 0, Miss_rate = -nan, Pending_hits = 0, Reservation_fails = 0
	L1D_cache_core[16]: Access = 0, Miss = 0, Miss_rate = -nan, Pending_hits = 0, Reservation_fails = 0
	L1D_cache_core[17]: Access = 0, Miss = 0, Miss_rate = -nan, Pending_hits = 0, Reservation_fails = 0
	L1D_cache_core[18]: Access = 0, Miss = 0, Miss_rate = -nan, Pending_hits = 0, Reservation_fails = 0
	L1D_cache_core[19]: Access = 0, Miss = 0, Miss_rate = -nan, Pending_hits = 0, Reservation_fails = 0
	L1D_cache_core[20]: Access = 0, Miss = 0, Miss_rate = -nan, Pending_hits = 0, Reservation_fails = 0
	L1D_cache_core[21]: Access = 0, Miss = 0, Miss_rate = -nan, Pending_hits = 0, Reservation_fails = 0
	L1D_cache_core[22]: Access = 0, Miss = 0, Miss_rate = -nan, Pending_hits = 0, Reservation_fails = 0
	L1D_cache_core[23]: Access = 0, Miss = 0, Miss_rate = -nan, Pending_hits = 0, Reservation_fails = 0
	L1D_cache_core[24]: Access = 0, Miss = 0, Miss_rate = -nan, Pending_hits = 0, Reservation_fails = 0
	L1D_cache_core[25]: Access = 0, Miss = 0, Miss_rate = -nan, Pending_hits = 0, Reservation_fails = 0
	L1D_cache_core[26]: Access = 0, Miss = 0, Miss_rate = -nan, Pending_hits = 0, Reservation_fails = 0
	L1D_cache_core[27]: Access = 0, Miss = 0, Miss_rate = -nan, Pending_hits = 0, Reservation_fails = 0
	L1D_total_cache_accesses = 0
	L1D_total_cache_misses = 0
	L1D_total_cache_pending_hits = 0
	L1D_total_cache_reservation_fails = 0
	L1D_cache_data_port_util = 0.000
	L1D_cache_fill_port_util = 0.000
L1C_cache:
	L1C_total_cache_accesses = 36000
	L1C_total_cache_misses = 1792
	L1C_total_cache_miss_rate = 0.0498
	L1C_total_cache_pending_hits = 0
	L1C_total_cache_reservation_fails = 4886
L1T_cache:
	L1T_total_cache_accesses = 0
	L1T_total_cache_misses = 0
	L1T_total_cache_pending_hits = 0
	L1T_total_cache_reservation_fails = 0

Total_core_cache_stats:
	Total_core_cache_stats_breakdown[GLOBAL_ACC_R][HIT] = 0
	Total_core_cache_stats_breakdown[GLOBAL_ACC_R][HIT_RESERVED] = 0
	Total_core_cache_stats_breakdown[GLOBAL_ACC_R][MISS] = 0
	Total_core_cache_stats_breakdown[GLOBAL_ACC_R][RESERVATION_FAIL] = 0
	Total_core_cache_stats_breakdown[LOCAL_ACC_R][HIT] = 0
	Total_core_cache_stats_breakdown[LOCAL_ACC_R][HIT_RESERVED] = 0
	Total_core_cache_stats_breakdown[LOCAL_ACC_R][MISS] = 0
	Total_core_cache_stats_breakdown[LOCAL_ACC_R][RESERVATION_FAIL] = 0
	Total_core_cache_stats_breakdown[CONST_ACC_R][HIT] = 34208
	Total_core_cache_stats_breakdown[CONST_ACC_R][HIT_RESERVED] = 0
	Total_core_cache_stats_breakdown[CONST_ACC_R][MISS] = 1792
	Total_core_cache_stats_breakdown[CONST_ACC_R][RESERVATION_FAIL] = 4886
	Total_core_cache_stats_breakdown[TEXTURE_ACC_R][HIT] = 0
	Total_core_cache_stats_breakdown[TEXTURE_ACC_R][HIT_RESERVED] = 0
	Total_core_cache_stats_breakdown[TEXTURE_ACC_R][MISS] = 0
	Total_core_cache_stats_breakdown[TEXTURE_ACC_R][RESERVATION_FAIL] = 0
	Total_core_cache_stats_breakdown[GLOBAL_ACC_W][HIT] = 0
	Total_core_cache_stats_breakdown[GLOBAL_ACC_W][HIT_RESERVED] = 0
	Total_core_cache_stats_breakdown[GLOBAL_ACC_W][MISS] = 0
	Total_core_cache_stats_breakdown[GLOBAL_ACC_W][RESERVATION_FAIL] = 0
	Total_core_cache_stats_breakdown[LOCAL_ACC_W][HIT] = 0
	Total_core_cache_stats_breakdown[LOCAL_ACC_W][HIT_RESERVED] = 0
	Total_core_cache_stats_breakdown[LOCAL_ACC_W][MISS] = 0
	Total_core_cache_stats_breakdown[LOCAL_ACC_W][RESERVATION_FAIL] = 0
	Total_core_cache_stats_breakdown[L1_WRBK_ACC][HIT] = 0
	Total_core_cache_stats_breakdown[L1_WRBK_ACC][HIT_RESERVED] = 0
	Total_core_cache_stats_breakdown[L1_WRBK_ACC][MISS] = 0
	Total_core_cache_stats_breakdown[L1_WRBK_ACC][RESERVATION_FAIL] = 0
	Total_core_cache_stats_breakdown[L2_WRBK_ACC][HIT] = 0
	Total_core_cache_stats_breakdown[L2_WRBK_ACC][HIT_RESERVED] = 0
	Total_core_cache_stats_breakdown[L2_WRBK_ACC][MISS] = 0
	Total_core_cache_stats_breakdown[L2_WRBK_ACC][RESERVATION_FAIL] = 0
	Total_core_cache_stats_breakdown[INST_ACC_R][HIT] = 639126
	Total_core_cache_stats_breakdown[INST_ACC_R][HIT_RESERVED] = 0
	Total_core_cache_stats_breakdown[INST_ACC_R][MISS] = 3249
	Total_core_cache_stats_breakdown[INST_ACC_R][RESERVATION_FAIL] = 6846
	Total_core_cache_stats_breakdown[L1_WR_ALLOC_R][HIT] = 0
	Total_core_cache_stats_breakdown[L1_WR_ALLOC_R][HIT_RESERVED] = 0
	Total_core_cache_stats_breakdown[L1_WR_ALLOC_R][MISS] = 0
	Total_core_cache_stats_breakdown[L1_WR_ALLOC_R][RESERVATION_FAIL] = 0
	Total_core_cache_stats_breakdown[L2_WR_ALLOC_R][HIT] = 0
	Total_core_cache_stats_breakdown[L2_WR_ALLOC_R][HIT_RESERVED] = 0
	Total_core_cache_stats_breakdown[L2_WR_ALLOC_R][MISS] = 0
	Total_core_cache_stats_breakdown[L2_WR_ALLOC_R][RESERVATION_FAIL] = 0
	Total_core_cache_stats_breakdown[CONST_ACC_R][TOTAL_ACCESS] = 36000
	Total_core_cache_stats_breakdown[INST_ACC_R][TOTAL_ACCESS] = 642375
Shader 0 warp_id issue ditsribution:
warp_id:
0, 1, 2, 3, 4, 5, 6, 7, 8, 9, 10, 11, 12, 13, 14, 15, 16, 17, 18, 19, 20, 21, 22, 23, 24, 25, 26, 27, 28, 29, 30, 31, 32, 33, 34, 35, 36, 37, 38, 39, 40, 41, 42, 43, 44, 45, 46, 47, 48, 49, 50, 51, 52, 53, 54, 55, 56, 57, 58, 59, 60, 61, 62, 63, 
distro:
1075, 859, 925, 858, 1012, 860, 931, 865, 895, 714, 769, 714, 841, 715, 777, 722, 894, 712, 769, 714, 841, 716, 775, 717, 895, 715, 769, 717, 841, 715, 778, 719, 895, 713, 770, 713, 843, 717, 778, 722, 894, 713, 769, 715, 843, 719, 776, 720, 895, 713, 770, 715, 842, 717, 778, 720, 715, 570, 615, 572, 674, 572, 621, 578, 
gpgpu_n_tot_thrd_icount = 39060000
gpgpu_n_tot_w_icount = 1220625
gpgpu_n_stall_shd_mem = 45378
gpgpu_n_mem_read_local = 0
gpgpu_n_mem_write_local = 0
gpgpu_n_mem_read_global = 27562
gpgpu_n_mem_write_global = 27000
gpgpu_n_mem_texture = 0
gpgpu_n_mem_const = 28
gpgpu_n_load_insn  = 306000
gpgpu_n_store_insn = 306000
gpgpu_n_shmem_insn = 2286000
gpgpu_n_tex_insn = 0
gpgpu_n_const_mem_insn = 0
gpgpu_n_param_mem_insn = 1152000
gpgpu_n_shmem_bkconflict = 0
gpgpu_n_cache_bkconflict = 0
gpgpu_n_intrawarp_mshr_merge = 0
gpgpu_n_cmem_portconflict = 4886
gpgpu_stall_shd_mem[c_mem][bk_conf] = 4886
gpgpu_stall_shd_mem[c_mem][mshr_rc] = 0
gpgpu_stall_shd_mem[c_mem][icnt_rc] = 0
gpgpu_stall_shd_mem[c_mem][data_port_stall] = 0
gpgpu_stall_shd_mem[t_mem][mshr_rc] = 0
gpgpu_stall_shd_mem[t_mem][icnt_rc] = 0
gpgpu_stall_shd_mem[t_mem][data_port_stall] = 0
gpgpu_stall_shd_mem[s_mem][bk_conf] = 0
gpgpu_stall_shd_mem[gl_mem][bk_conf] = 0
gpgpu_stall_shd_mem[gl_mem][coal_stall] = 35316
gpgpu_stall_shd_mem[gl_mem][data_port_stall] = 0
gpgpu_stall_shd_mem[g_mem_ld][mshr_rc] = 0
gpgpu_stall_shd_mem[g_mem_ld][icnt_rc] = 5176
gpgpu_stall_shd_mem[g_mem_ld][wb_icnt_rc] = 0
gpgpu_stall_shd_mem[g_mem_ld][wb_rsrv_fail] = 0
gpgpu_stall_shd_mem[g_mem_st][mshr_rc] = 0
gpgpu_stall_shd_mem[g_mem_st][icnt_rc] = 0
gpgpu_stall_shd_mem[g_mem_st][wb_icnt_rc] = 0
gpgpu_stall_shd_mem[g_mem_st][wb_rsrv_fail] = 0
gpgpu_stall_shd_mem[l_mem_ld][mshr_rc] = 0
gpgpu_stall_shd_mem[l_mem_ld][icnt_rc] = 0
gpgpu_stall_shd_mem[l_mem_ld][wb_icnt_rc] = 0
gpgpu_stall_shd_mem[l_mem_ld][wb_rsrv_fail] = 0
gpgpu_stall_shd_mem[l_mem_st][mshr_rc] = 0
gpgpu_stall_shd_mem[l_mem_st][icnt_rc] = 0
gpgpu_stall_shd_mem[l_mem_ld][wb_icnt_rc] = 0
gpgpu_stall_shd_mem[l_mem_ld][wb_rsrv_fail] = 0
gpu_reg_bank_conflict_stalls = 0
Warp Occupancy Distribution:
Stall:58398	W0_Idle:3041810	W0_Scoreboard:44867292	W1:0	W2:144000	W3:0	W4:0	W5:0	W6:0	W7:0	W8:0	W9:0	W10:0	W11:0	W12:0	W13:0	W14:0	W15:0	W16:185625	W17:0	W18:0	W19:0	W20:0	W21:0	W22:0	W23:0	W24:0	W25:0	W26:0	W27:0	W28:0	W29:0	W30:0	W31:0	W32:891000
traffic_breakdown_coretomem[CONST_ACC_R] = 224 {8:28,}
traffic_breakdown_coretomem[GLOBAL_ACC_R] = 220496 {8:27562,}
traffic_breakdown_coretomem[GLOBAL_ACC_W] = 2087968 {40:13501,72:4499,136:9000,}
traffic_breakdown_coretomem[INST_ACC_R] = 1344 {8:168,}
traffic_breakdown_memtocore[CONST_ACC_R] = 2016 {72:28,}
traffic_breakdown_memtocore[GLOBAL_ACC_R] = 2200496 {40:12375,72:5624,136:9563,}
traffic_breakdown_memtocore[GLOBAL_ACC_W] = 216000 {8:27000,}
traffic_breakdown_memtocore[INST_ACC_R] = 22848 {136:168,}
maxmrqlatency = 82 
maxdqlatency = 0 
maxmflatency = 158811 
averagemflatency = 40151 
max_icnt2mem_latency = 158551 
max_icnt2sh_latency = 1098640 
mrq_lat_table:9400 	504 	738 	2038 	3257 	3109 	448 	0 	0 	0 	0 	0 	0 	0 	0 	0 	0 	0 	0 	0 	0 	0 	0 	0 	0 	0 	0 	0 	0 	0 	0 	0 	
dq_lat_table:0 	0 	0 	0 	0 	0 	0 	0 	0 	0 	0 	0 	0 	0 	0 	0 	0 	0 	0 	0 	0 	0 	0 	0 	0 	0 	0 	0 	0 	0 	0 	0 	
mf_lat_table:0 	0 	0 	0 	0 	0 	0 	19834 	738 	0 	32 	543 	1929 	1723 	8165 	7068 	10357 	4201 	0 	0 	0 	0 	0 	0 	0 	0 	0 	0 	0 	0 	0 	0 	
icnt2mem_lat_table:0 	0 	4195 	15888 	55 	0 	602 	0 	0 	0 	32 	566 	1906 	1723 	8261 	6972 	10357 	4201 	0 	0 	0 	0 	0 	0 	
icnt2sh_lat_table:0 	0 	7491 	10374 	9172 	546 	7 	0 	0 	0 	0 	0 	0 	0 	0 	0 	0 	528 	7728 	16848 	1896 	0 	0 	0 	
mf_lat_pw_table:0 	0 	0 	0 	0 	0 	0 	362 	10 	0 	0 	1 	3 	10 	59 	98 	131 	62 	0 	0 	0 	0 	0 	0 	0 	0 	0 	0 	0 	0 	0 	0 	
maximum concurrent accesses to same row:
dram[0]:        16        16        94       102        85        85        16        16        16        16        16        16        16        16        16        16 
dram[1]:        16        16        94       102        85        85        16        16        16        16        16        16        16        16        16        16 
dram[2]:        16        16       102       102        85        85        16        16        16        16        16        16        16        16        16        16 
dram[3]:        16        16       102       102        85        85        16        16        16        16        16        16        16        16        16        16 
dram[4]:        16        16       102       102        85        85        16        16        16        16        16        16        16        16        16        16 
dram[5]:        16        16       102       102       102       102        16        16        16        16        16        16        16        16        16        16 
dram[6]:        16        16       102       102        94       102        16        16        16        16        16        16        16        16        16        16 
dram[7]:        17        17       102       102        94       102        16        16        16        16        16        16        16        16        16        16 
dram[8]:        17        17       102        93        97       102        16        16        16        16        16        16        16        16        16        16 
dram[9]:        17        17       102       102        94       102        16        16        16        16        16        16        16        16        16        16 
dram[10]:        17        17        94       102        85        85        16        16        16        16        16        16        16        16        16        16 
maximum service time to same row:
dram[0]:    265718    265710    208401    208400    257894    257895    278734    278736    268318    268317    255287    255287    208404    208405    247478    247474 
dram[1]:    265713    265713    208396    208397    257895    257892    278735    278731    268319    268319    255287    255288    208400    208400    247475    247475 
dram[2]:    265713    265715    208404    208402    257892    257894    278732    278732    268309    268316    255287    255276    208403    208400    247475    247475 
dram[3]:    265716    265710    208398    208397    257895    257892    278739    278734    268317    268313    255291    255291    208405    208407    247475    247480 
dram[4]:    265710    265722    208398    208403    257901    257894    278736    278736    268316    268317    255287    255288    208407    208409    247467    247461 
dram[5]:    265713    265713    208403    208400    257894    257894    278740    278740    268312    268316    255295    255295    208399    208401    247475    247476 
dram[6]:    265714    265714    208401    208401    257892    257913    278724    278724    268314    268315    255296    255289    208402    208403    247477    247477 
dram[7]:    265714    265725    208399    208400    257887    257892    278737    278739    268315    268316    255290    255290    208399    208399    247467    247475 
dram[8]:    265710    265711    208401    208396    257926    264289    278739    278739    268315    268315    255292    255294    208401    208401    247476    247475 
dram[9]:    265712    265714    208397    208386    269480    269605    278740    278739    268314    268321    255294    255299    208392    208394    247481    247481 
dram[10]:    265714    265720    208401    208401    266901    266889    278725    278726    268308    268302    255302    255301    208394    208396    247475    247474 
average row accesses per activate:
dram[0]: 16.250000 16.000000 32.000000 33.500000 32.571430 32.142857 16.000000 16.000000 16.000000 16.000000 12.500000 12.500000 10.666667  8.000000  9.000000  7.000000 
dram[1]: 16.000000 16.000000 32.000000 33.599998 25.333334 23.555555 16.000000 16.000000 16.000000 16.000000 12.750000 12.750000  8.000000  8.000000  7.000000  7.000000 
dram[2]: 16.000000 16.000000 32.799999 33.599998 24.444445 22.555555 16.000000 16.000000 16.000000 16.000000 12.750000 12.750000  8.000000  8.000000  7.111111  7.111111 
dram[3]: 16.000000 16.000000 32.799999 32.799999 23.444445 23.444445 16.000000 16.000000 16.000000 16.000000 12.750000 12.750000  8.000000  8.000000  7.111111  7.111111 
dram[4]: 16.000000 16.000000 33.599998 32.799999 23.444445 22.555555 16.000000 16.000000 16.000000 16.000000 12.750000 12.750000  8.000000 10.666667  8.125000  8.125000 
dram[5]: 16.000000 16.000000 33.599998 32.799999 30.142857 30.142857 16.000000 16.000000 16.000000 16.000000 12.750000 12.750000 10.666667 10.666667  8.125000  7.222222 
dram[6]: 16.000000 16.000000 33.599998 33.599998 29.000000 30.142857 16.000000 16.000000 16.000000 16.000000 12.750000 12.750000 10.666667 10.666667  7.222222  7.222222 
dram[7]: 16.200001 16.200001 33.599998 33.599998 29.000000 30.142857 16.000000 16.000000 16.000000 16.000000 12.750000 12.750000 10.666667 10.666667  9.142858  9.000000 
dram[8]: 16.200001 16.200001 33.599998 32.700001 28.285715 30.142857 16.000000 16.000000 16.000000 16.000000 12.750000 12.750000 10.666667 10.666667  9.000000  9.000000 
dram[9]: 16.200001 16.200001 32.799999 33.599998 27.857143 29.000000 16.000000 16.000000 16.000000 16.000000 12.750000 12.750000 10.666667 10.666667  9.000000  9.000000 
dram[10]: 16.200001 16.200001 32.799999 33.500000 28.857143 28.857143 16.000000 16.000000 16.000000 16.000000 12.750000 12.750000 10.666667 10.666667  9.000000  9.000000 
average row locality = 19494/1031 = 18.907856
number of total memory accesses made:
dram[0]:         0         0         0         0         0         0         0         0         0         0         0         0         0         0         0         0 
dram[1]:         0         0         0         0         0         0         0         0         0         0         0         0         0         0         0         0 
dram[2]:         0         0         0         0         0         0         0         0         0         0         0         0         0         0         0         0 
dram[3]:         0         0         0         0         0         0         0         0         0         0         0         0         0         0         0         0 
dram[4]:         0         0         0         0         0         0         0         0         0         0         0         0         0         0         0         0 
dram[5]:         0         0         0         0         0         0         0         0         0         0         0         0         0         0         0         0 
dram[6]:         0         0         0         0         0         0         0         0         0         0         0         0         0         0         0         0 
dram[7]:         0         0         0         0         0         0         0         0         0         0         0         0         0         0         0         0 
dram[8]:         0         0         0         0         0         0         0         0         0         0         0         0         0         0         0         0 
dram[9]:         0         0         0         0         0         0         0         0         0         0         0         0         0         0         0         0 
dram[10]:         0         0         0         0         0         0         0         0         0         0         0         0         0         0         0         0 
total accesses: 0
min_bank_accesses = 0!
min_chip_accesses = 0!
number of total read accesses:
dram[0]:        65        64        80        80        68        68        48        48        48        48        50        50        64        64        63        63 
dram[1]:        64        64        80        80        68        68        48        48        48        48        51        51        64        64        63        63 
dram[2]:        64        64        80        80        68        67        48        48        48        48        51        51        64        64        64        64 
dram[3]:        64        64        80        80        67        67        48        48        48        48        51        51        64        64        64        64 
dram[4]:        64        64        80        80        67        67        48        48        48        48        51        51        64        64        65        65 
dram[5]:        64        64        80        80        67        67        48        48        48        48        51        51        64        64        65        65 
dram[6]:        64        64        80        80        67        67        48        48        48        48        51        51        64        64        65        65 
dram[7]:        65        65        80        80        67        67        48        48        48        48        51        51        64        64        64        63 
dram[8]:        65        65        80        80        67        67        48        48        48        48        51        51        64        64        63        63 
dram[9]:        65        65        80        80        67        67        48        48        48        48        51        51        64        64        63        63 
dram[10]:        65        65        80        80        66        66        48        48        48        48        51        51        64        64        63        63 
total reads: 10697
bank skew: 80/48 = 1.67
chip skew: 974/970 = 1.00
number of total write accesses:
dram[0]:         0         0       240       255       160       157         0         0         0         0         0         0         0         0         0         0 
dram[1]:         0         0       240       256       160       144         0         0         0         0         0         0         0         0         0         0 
dram[2]:         0         0       248       256       152       136         0         0         0         0         0         0         0         0         0         0 
dram[3]:         0         0       248       248       144       144         0         0         0         0         0         0         0         0         0         0 
dram[4]:         0         0       256       248       144       136         0         0         0         0         0         0         0         0         0         0 
dram[5]:         0         0       256       248       144       144         0         0         0         0         0         0         0         0         0         0 
dram[6]:         0         0       256       256       136       144         0         0         0         0         0         0         0         0         0         0 
dram[7]:        16        16       256       256       136       144         0         0         0         0         0         0         0         0         0         0 
dram[8]:        16        16       256       247       131       144         0         0         0         0         0         0         0         0         0         0 
dram[9]:        16        16       248       256       128       136         0         0         0         0         0         0         0         0         0         0 
dram[10]:        16        16       248       255       136       136         0         0         0         0         0         0         0         0         0         0 
total reads: 8797
min_bank_accesses = 0!
chip skew: 824/784 = 1.05
average mf latency per bank:
dram[0]:     148638    151405     93443     90137     72362     71917    161448    161077    147657    150324    124205    124002    187493    188331    176425    175540
dram[1]:     148662    148347     94370     87224     71831     75475    160733    166146    150582    149678    123409    123897    188706    188083    174694    172967
dram[2]:     147353    148383     88304     85802     71317     74736    163148    161317    150638    149459    123865    123471    189288    189131    170063    170372
dram[3]:     150488    149722     88267     85932     73865     76173    161057    159711    148899    148205    122061    122187    190159    189686    172049    171654
dram[4]:     149713    149480     83273     83320     78273     78486    160735    161131    151170    151183    124725    124523    195729    193910    170649    169757
dram[5]:     147795    148795     81968     84611     85818     85775    165864    162760    148512    148095    122471    122476    192169    191377    165892    166796
dram[6]:     149231    148846     82708     80937     85446     79345    163455    163630    148761    151766    123472    123858    195720    197156    168505    166354
dram[7]:     144977    144055     86722     84174     82945     78697    163905    167669    153978    151438    123832    123204    193374    190832    164225    165356
dram[8]:     145639    148103     82175     81994     86272     79847    165950    164501    146764    143153    123605    123206    195057    194589    167356    167223
dram[9]:     150467    148291     87178     84145     87713     82991    162451    159010    146452    146682    123960    125406    190657    190579    165038    165230
dram[10]:     149145    148675     85883     83013     83495     83964    164338    161889    145576    145597    126759    125405    192937    192497    165351    167766
maximum mf latency per bank:
dram[0]:     153589    153604    157215    156188    156214    156211    154673    154689    156222    156231    122332    122350    153571    153573    156152    156188
dram[1]:     153603    153657    156183    156180    156222    156235    154674    154689    158788    158797    122329    122347    153582    153587    156190    156190
dram[2]:     153637    153647    156193    156238    156223    156225    154672    154687    158785    158794    122333    122351    153603    153621    156192    156189
dram[3]:     153628    153620    156207    156241    156225    156227    154678    154675    158786    158786    122327    122329    153603    153621    156185    156200
dram[4]:     153625    153638    156209    156206    156217    156218    154656    152194    158792    158811    122295    122336    153623    153623    156182    156202
dram[5]:     153607    153623    156207    156203    156226    156239    154650    154658    158795    158807    122338    122355    153608    153617    156204    156201
dram[6]:     153596    153622    156185    141674    156226    156239    154648    154670    158791    158803    122342    122355    153603    153578    156177    156197
dram[7]:     153624    153609    144994    142441    156240    156225    154649    154661    158788    158803    122345    122355    153569    153586    156173    156150
dram[8]:     153603    153586    142351    147621    156237    156242    154653    154666    158791    156220    122344    122323    153573    153586    156134    156144
dram[9]:     153593    153604    147611    152835    156213    156225    154647    152127    156221    156232    122333    122345    153577    153587    156134    156147
dram[10]:     153587    153609    156184    156192    156227    156228    154661    154679    156218    156231    122339    122342    153565    153565    156134    156151
Memory Partition 0: 
Cache L2_bank_000:
MSHR contents

Cache L2_bank_001:
MSHR contents

In Dram Latency Queue (total = 0): 
DRAM[0]: 16 bks, busW=4 BL=8 CL=12, tRRD=2 tCCD=6, tRCD=12 tRAS=28 tRP=12 tRC=40
n_cmd=1627514 n_nop=1622648 n_act=93 n_pre=77 n_req=1783 n_rd=3884 n_write=812 bw_util=0.005771
n_activity=15148 dram_eff=0.62
bk0: 260a 1626894i bk1: 256a 1626586i bk2: 320a 1625643i bk3: 320a 1624998i bk4: 272a 1626265i bk5: 272a 1625752i bk6: 192a 1627069i bk7: 192a 1626816i bk8: 192a 1627098i bk9: 192a 1626818i bk10: 200a 1627047i bk11: 200a 1626780i bk12: 256a 1626891i bk13: 256a 1626531i bk14: 252a 1626884i bk15: 252a 1626531i 
dram_util_bins: 0 0 0 0 0 0 0 0 0 0
dram_eff_bins: 0 0 0 0 0 0 0 0 0 0
mrqq: max=50 avg=0.0286787
Memory Partition 1: 
Cache L2_bank_002:
MSHR contents

Cache L2_bank_003:
MSHR contents

In Dram Latency Queue (total = 0): 
DRAM[1]: 16 bks, busW=4 BL=8 CL=12, tRRD=2 tCCD=6, tRCD=12 tRAS=28 tRP=12 tRC=40
n_cmd=1627514 n_nop=1622642 n_act=100 n_pre=84 n_req=1772 n_rd=3888 n_write=800 bw_util=0.005761
n_activity=15222 dram_eff=0.616
bk0: 256a 1626942i bk1: 256a 1626598i bk2: 320a 1625617i bk3: 320a 1624955i bk4: 272a 1626234i bk5: 272a 1625725i bk6: 192a 1627065i bk7: 192a 1626824i bk8: 192a 1627098i bk9: 192a 1626840i bk10: 204a 1627058i bk11: 204a 1626745i bk12: 256a 1626865i bk13: 256a 1626521i bk14: 252a 1626827i bk15: 252a 1626487i 
dram_util_bins: 0 0 0 0 0 0 0 0 0 0
dram_eff_bins: 0 0 0 0 0 0 0 0 0 0
mrqq: max=48 avg=0.0284643
Memory Partition 2: 
Cache L2_bank_004:
MSHR contents

Cache L2_bank_005:
MSHR contents

In Dram Latency Queue (total = 0): 
DRAM[2]: 16 bks, busW=4 BL=8 CL=12, tRRD=2 tCCD=6, tRCD=12 tRAS=28 tRP=12 tRC=40
n_cmd=1627514 n_nop=1622646 n_act=100 n_pre=84 n_req=1765 n_rd=3892 n_write=792 bw_util=0.005756
n_activity=15344 dram_eff=0.6105
bk0: 256a 1626948i bk1: 256a 1626599i bk2: 320a 1625587i bk3: 320a 1625016i bk4: 272a 1626226i bk5: 268a 1625802i bk6: 192a 1627083i bk7: 192a 1626799i bk8: 192a 1627084i bk9: 192a 1626826i bk10: 204a 1627044i bk11: 204a 1626761i bk12: 256a 1626826i bk13: 256a 1626551i bk14: 256a 1626836i bk15: 256a 1626528i 
dram_util_bins: 0 0 0 0 0 0 0 0 0 0
dram_eff_bins: 0 0 0 0 0 0 0 0 0 0
mrqq: max=51 avg=0.0267604
Memory Partition 3: 
Cache L2_bank_006:
MSHR contents

Cache L2_bank_007:
MSHR contents

In Dram Latency Queue (total = 0): 
DRAM[3]: 16 bks, busW=4 BL=8 CL=12, tRRD=2 tCCD=6, tRCD=12 tRAS=28 tRP=12 tRC=40
n_cmd=1627514 n_nop=1622658 n_act=100 n_pre=84 n_req=1756 n_rd=3888 n_write=784 bw_util=0.005741
n_activity=15240 dram_eff=0.6131
bk0: 256a 1626948i bk1: 256a 1626600i bk2: 320a 1625663i bk3: 320a 1625052i bk4: 268a 1626194i bk5: 268a 1625818i bk6: 192a 1627067i bk7: 192a 1626824i bk8: 192a 1627074i bk9: 192a 1626828i bk10: 204a 1627043i bk11: 204a 1626755i bk12: 256a 1626844i bk13: 256a 1626524i bk14: 256a 1626827i bk15: 256a 1626494i 
dram_util_bins: 0 0 0 0 0 0 0 0 0 0
dram_eff_bins: 0 0 0 0 0 0 0 0 0 0
mrqq: max=44 avg=0.0264244
Memory Partition 4: 
Cache L2_bank_008:
MSHR contents

Cache L2_bank_009:
MSHR contents

In Dram Latency Queue (total = 0): 
DRAM[4]: 16 bks, busW=4 BL=8 CL=12, tRRD=2 tCCD=6, tRCD=12 tRAS=28 tRP=12 tRC=40
n_cmd=1627514 n_nop=1622658 n_act=96 n_pre=80 n_req=1758 n_rd=3896 n_write=784 bw_util=0.005751
n_activity=15052 dram_eff=0.6218
bk0: 256a 1626942i bk1: 256a 1626611i bk2: 320a 1625664i bk3: 320a 1624971i bk4: 268a 1626157i bk5: 268a 1625797i bk6: 192a 1627067i bk7: 192a 1626824i bk8: 192a 1627091i bk9: 192a 1626829i bk10: 204a 1627039i bk11: 204a 1626775i bk12: 256a 1626835i bk13: 256a 1626536i bk14: 260a 1626835i bk15: 260a 1626481i 
dram_util_bins: 0 0 0 0 0 0 0 0 0 0
dram_eff_bins: 0 0 0 0 0 0 0 0 0 0
mrqq: max=45 avg=0.0262062
Memory Partition 5: 
Cache L2_bank_010:
MSHR contents

Cache L2_bank_011:
MSHR contents

In Dram Latency Queue (total = 0): 
DRAM[5]: 16 bks, busW=4 BL=8 CL=12, tRRD=2 tCCD=6, tRCD=12 tRAS=28 tRP=12 tRC=40
n_cmd=1627514 n_nop=1622660 n_act=91 n_pre=75 n_req=1766 n_rd=3896 n_write=792 bw_util=0.005761
n_activity=14984 dram_eff=0.6257
bk0: 256a 1626935i bk1: 256a 1626614i bk2: 320a 1625634i bk3: 320a 1625022i bk4: 268a 1626228i bk5: 268a 1625703i bk6: 192a 1627061i bk7: 192a 1626802i bk8: 192a 1627087i bk9: 192a 1626817i bk10: 204a 1627049i bk11: 204a 1626746i bk12: 256a 1626898i bk13: 256a 1626594i bk14: 260a 1626851i bk15: 260a 1626501i 
dram_util_bins: 0 0 0 0 0 0 0 0 0 0
dram_eff_bins: 0 0 0 0 0 0 0 0 0 0
mrqq: max=48 avg=0.0284342
Memory Partition 6: 
Cache L2_bank_012:
MSHR contents

Cache L2_bank_013:
MSHR contents

In Dram Latency Queue (total = 0): 
DRAM[6]: 16 bks, busW=4 BL=8 CL=12, tRRD=2 tCCD=6, tRCD=12 tRAS=28 tRP=12 tRC=40
n_cmd=1627514 n_nop=1622658 n_act=92 n_pre=76 n_req=1766 n_rd=3896 n_write=792 bw_util=0.005761
n_activity=14958 dram_eff=0.6268
bk0: 256a 1626954i bk1: 256a 1626592i bk2: 320a 1625648i bk3: 320a 1624919i bk4: 268a 1626278i bk5: 268a 1625824i bk6: 192a 1627082i bk7: 192a 1626837i bk8: 192a 1627090i bk9: 192a 1626828i bk10: 204a 1627029i bk11: 204a 1626773i bk12: 256a 1626898i bk13: 256a 1626560i bk14: 260a 1626810i bk15: 260a 1626458i 
dram_util_bins: 0 0 0 0 0 0 0 0 0 0
dram_eff_bins: 0 0 0 0 0 0 0 0 0 0
mrqq: max=42 avg=0.0284415
Memory Partition 7: 
Cache L2_bank_014:
MSHR contents

Cache L2_bank_015:
MSHR contents

In Dram Latency Queue (total = 0): 
DRAM[7]: 16 bks, busW=4 BL=8 CL=12, tRRD=2 tCCD=6, tRCD=12 tRAS=28 tRP=12 tRC=40
n_cmd=1627514 n_nop=1622634 n_act=90 n_pre=74 n_req=1797 n_rd=3892 n_write=824 bw_util=0.005795
n_activity=14924 dram_eff=0.632
bk0: 260a 1626834i bk1: 260a 1626470i bk2: 320a 1625615i bk3: 320a 1624909i bk4: 268a 1626235i bk5: 268a 1625854i bk6: 192a 1627074i bk7: 192a 1626823i bk8: 192a 1627097i bk9: 192a 1626810i bk10: 204a 1627039i bk11: 204a 1626757i bk12: 256a 1626903i bk13: 256a 1626552i bk14: 256a 1626856i bk15: 252a 1626552i 
dram_util_bins: 0 0 0 0 0 0 0 0 0 0
dram_eff_bins: 0 0 0 0 0 0 0 0 0 0
mrqq: max=47 avg=0.0323395
Memory Partition 8: 
Cache L2_bank_016:
MSHR contents

Cache L2_bank_017:
MSHR contents

In Dram Latency Queue (total = 0): 
DRAM[8]: 16 bks, busW=4 BL=8 CL=12, tRRD=2 tCCD=6, tRCD=12 tRAS=28 tRP=12 tRC=40
n_cmd=1627514 n_nop=1622652 n_act=90 n_pre=74 n_req=1782 n_rd=3888 n_write=810 bw_util=0.005773
n_activity=15058 dram_eff=0.624
bk0: 260a 1626851i bk1: 260a 1626491i bk2: 320a 1625658i bk3: 320a 1625025i bk4: 268a 1626277i bk5: 268a 1625843i bk6: 192a 1627077i bk7: 192a 1626822i bk8: 192a 1627089i bk9: 192a 1626831i bk10: 204a 1627035i bk11: 204a 1626762i bk12: 256a 1626898i bk13: 256a 1626572i bk14: 252a 1626861i bk15: 252a 1626550i 
dram_util_bins: 0 0 0 0 0 0 0 0 0 0
dram_eff_bins: 0 0 0 0 0 0 0 0 0 0
mrqq: max=45 avg=0.0269239
Memory Partition 9: 
Cache L2_bank_018:
MSHR contents

Cache L2_bank_019:
MSHR contents

In Dram Latency Queue (total = 0): 
DRAM[9]: 16 bks, busW=4 BL=8 CL=12, tRRD=2 tCCD=6, tRCD=12 tRAS=28 tRP=12 tRC=40
n_cmd=1627514 n_nop=1622662 n_act=90 n_pre=74 n_req=1772 n_rd=3888 n_write=800 bw_util=0.005761
n_activity=14965 dram_eff=0.6265
bk0: 260a 1626832i bk1: 260a 1626481i bk2: 320a 1625624i bk3: 320a 1624954i bk4: 268a 1626354i bk5: 268a 1625842i bk6: 192a 1627080i bk7: 192a 1626808i bk8: 192a 1627101i bk9: 192a 1626831i bk10: 204a 1627041i bk11: 204a 1626760i bk12: 256a 1626879i bk13: 256a 1626551i bk14: 252a 1626891i bk15: 252a 1626543i 
dram_util_bins: 0 0 0 0 0 0 0 0 0 0
dram_eff_bins: 0 0 0 0 0 0 0 0 0 0
mrqq: max=51 avg=0.0291248
Memory Partition 10: 
Cache L2_bank_020:
MSHR contents

Cache L2_bank_021:
MSHR contents

In Dram Latency Queue (total = 0): 
DRAM[10]: 16 bks, busW=4 BL=8 CL=12, tRRD=2 tCCD=6, tRCD=12 tRAS=28 tRP=12 tRC=40
n_cmd=1627514 n_nop=1622663 n_act=90 n_pre=74 n_req=1777 n_rd=3880 n_write=807 bw_util=0.00576
n_activity=15087 dram_eff=0.6213
bk0: 260a 1626839i bk1: 260a 1626519i bk2: 320a 1625616i bk3: 320a 1624996i bk4: 264a 1626253i bk5: 264a 1625847i bk6: 192a 1627079i bk7: 192a 1626840i bk8: 192a 1627093i bk9: 192a 1626817i bk10: 204a 1627058i bk11: 204a 1626756i bk12: 256a 1626902i bk13: 256a 1626568i bk14: 252a 1626886i bk15: 252a 1626530i 
dram_util_bins: 0 0 0 0 0 0 0 0 0 0
dram_eff_bins: 0 0 0 0 0 0 0 0 0 0
mrqq: max=44 avg=0.0288016

========= L2 cache stats =========
L2_cache_bank[0]: Access = 2503, Miss = 486, Miss_rate = 0.194, Pending_hits = 1135, Reservation_fails = 0
L2_cache_bank[1]: Access = 2473, Miss = 485, Miss_rate = 0.196, Pending_hits = 1145, Reservation_fails = 0
L2_cache_bank[2]: Access = 2491, Miss = 486, Miss_rate = 0.195, Pending_hits = 1155, Reservation_fails = 0
L2_cache_bank[3]: Access = 2492, Miss = 486, Miss_rate = 0.195, Pending_hits = 1149, Reservation_fails = 0
L2_cache_bank[4]: Access = 2486, Miss = 487, Miss_rate = 0.196, Pending_hits = 1119, Reservation_fails = 0
L2_cache_bank[5]: Access = 2480, Miss = 486, Miss_rate = 0.196, Pending_hits = 1156, Reservation_fails = 0
L2_cache_bank[6]: Access = 2478, Miss = 486, Miss_rate = 0.196, Pending_hits = 1154, Reservation_fails = 0
L2_cache_bank[7]: Access = 2480, Miss = 486, Miss_rate = 0.196, Pending_hits = 1167, Reservation_fails = 0
L2_cache_bank[8]: Access = 2508, Miss = 487, Miss_rate = 0.194, Pending_hits = 1185, Reservation_fails = 0
L2_cache_bank[9]: Access = 2508, Miss = 487, Miss_rate = 0.194, Pending_hits = 1185, Reservation_fails = 0
L2_cache_bank[10]: Access = 2508, Miss = 487, Miss_rate = 0.194, Pending_hits = 1194, Reservation_fails = 0
L2_cache_bank[11]: Access = 2506, Miss = 487, Miss_rate = 0.194, Pending_hits = 1167, Reservation_fails = 0
L2_cache_bank[12]: Access = 2508, Miss = 487, Miss_rate = 0.194, Pending_hits = 1166, Reservation_fails = 0
L2_cache_bank[13]: Access = 2508, Miss = 487, Miss_rate = 0.194, Pending_hits = 1169, Reservation_fails = 0
L2_cache_bank[14]: Access = 2488, Miss = 487, Miss_rate = 0.196, Pending_hits = 1157, Reservation_fails = 0
L2_cache_bank[15]: Access = 2479, Miss = 486, Miss_rate = 0.196, Pending_hits = 1165, Reservation_fails = 0
L2_cache_bank[16]: Access = 2479, Miss = 486, Miss_rate = 0.196, Pending_hits = 1152, Reservation_fails = 0
L2_cache_bank[17]: Access = 2479, Miss = 486, Miss_rate = 0.196, Pending_hits = 1145, Reservation_fails = 0
L2_cache_bank[18]: Access = 2477, Miss = 486, Miss_rate = 0.196, Pending_hits = 1131, Reservation_fails = 0
L2_cache_bank[19]: Access = 2477, Miss = 486, Miss_rate = 0.196, Pending_hits = 1144, Reservation_fails = 0
L2_cache_bank[20]: Access = 2475, Miss = 485, Miss_rate = 0.196, Pending_hits = 1146, Reservation_fails = 0
L2_cache_bank[21]: Access = 2475, Miss = 485, Miss_rate = 0.196, Pending_hits = 1142, Reservation_fails = 0
L2_total_cache_accesses = 54758
L2_total_cache_misses = 10697
L2_total_cache_miss_rate = 0.1954
L2_total_cache_pending_hits = 25428
L2_total_cache_reservation_fails = 0
L2_total_cache_breakdown:
	L2_cache_stats_breakdown[GLOBAL_ACC_R][HIT] = 352
	L2_cache_stats_breakdown[GLOBAL_ACC_R][HIT_RESERVED] = 17083
	L2_cache_stats_breakdown[GLOBAL_ACC_R][MISS] = 10127
	L2_cache_stats_breakdown[GLOBAL_ACC_R][RESERVATION_FAIL] = 0
	L2_cache_stats_breakdown[LOCAL_ACC_R][HIT] = 0
	L2_cache_stats_breakdown[LOCAL_ACC_R][HIT_RESERVED] = 0
	L2_cache_stats_breakdown[LOCAL_ACC_R][MISS] = 0
	L2_cache_stats_breakdown[LOCAL_ACC_R][RESERVATION_FAIL] = 0
	L2_cache_stats_breakdown[CONST_ACC_R][HIT] = 0
	L2_cache_stats_breakdown[CONST_ACC_R][HIT_RESERVED] = 27
	L2_cache_stats_breakdown[CONST_ACC_R][MISS] = 1
	L2_cache_stats_breakdown[CONST_ACC_R][RESERVATION_FAIL] = 0
	L2_cache_stats_breakdown[TEXTURE_ACC_R][HIT] = 0
	L2_cache_stats_breakdown[TEXTURE_ACC_R][HIT_RESERVED] = 0
	L2_cache_stats_breakdown[TEXTURE_ACC_R][MISS] = 0
	L2_cache_stats_breakdown[TEXTURE_ACC_R][RESERVATION_FAIL] = 0
	L2_cache_stats_breakdown[GLOBAL_ACC_W][HIT] = 18203
	L2_cache_stats_breakdown[GLOBAL_ACC_W][HIT_RESERVED] = 8234
	L2_cache_stats_breakdown[GLOBAL_ACC_W][MISS] = 563
	L2_cache_stats_breakdown[GLOBAL_ACC_W][RESERVATION_FAIL] = 0
	L2_cache_stats_breakdown[LOCAL_ACC_W][HIT] = 0
	L2_cache_stats_breakdown[LOCAL_ACC_W][HIT_RESERVED] = 0
	L2_cache_stats_breakdown[LOCAL_ACC_W][MISS] = 0
	L2_cache_stats_breakdown[LOCAL_ACC_W][RESERVATION_FAIL] = 0
	L2_cache_stats_breakdown[L1_WRBK_ACC][HIT] = 0
	L2_cache_stats_breakdown[L1_WRBK_ACC][HIT_RESERVED] = 0
	L2_cache_stats_breakdown[L1_WRBK_ACC][MISS] = 0
	L2_cache_stats_breakdown[L1_WRBK_ACC][RESERVATION_FAIL] = 0
	L2_cache_stats_breakdown[L2_WRBK_ACC][HIT] = 0
	L2_cache_stats_breakdown[L2_WRBK_ACC][HIT_RESERVED] = 0
	L2_cache_stats_breakdown[L2_WRBK_ACC][MISS] = 0
	L2_cache_stats_breakdown[L2_WRBK_ACC][RESERVATION_FAIL] = 0
	L2_cache_stats_breakdown[INST_ACC_R][HIT] = 78
	L2_cache_stats_breakdown[INST_ACC_R][HIT_RESERVED] = 84
	L2_cache_stats_breakdown[INST_ACC_R][MISS] = 6
	L2_cache_stats_breakdown[INST_ACC_R][RESERVATION_FAIL] = 0
	L2_cache_stats_breakdown[L1_WR_ALLOC_R][HIT] = 0
	L2_cache_stats_breakdown[L1_WR_ALLOC_R][HIT_RESERVED] = 0
	L2_cache_stats_breakdown[L1_WR_ALLOC_R][MISS] = 0
	L2_cache_stats_breakdown[L1_WR_ALLOC_R][RESERVATION_FAIL] = 0
	L2_cache_stats_breakdown[L2_WR_ALLOC_R][HIT] = 0
	L2_cache_stats_breakdown[L2_WR_ALLOC_R][HIT_RESERVED] = 0
	L2_cache_stats_breakdown[L2_WR_ALLOC_R][MISS] = 0
	L2_cache_stats_breakdown[L2_WR_ALLOC_R][RESERVATION_FAIL] = 0
	L2_cache_stats_breakdown[GLOBAL_ACC_R][TOTAL_ACCESS] = 27562
	L2_cache_stats_breakdown[CONST_ACC_R][TOTAL_ACCESS] = 28
	L2_cache_stats_breakdown[GLOBAL_ACC_W][TOTAL_ACCESS] = 27000
	L2_cache_stats_breakdown[INST_ACC_R][TOTAL_ACCESS] = 168
L2_cache_data_port_util = 0.003
L2_cache_fill_port_util = 0.002

icnt_total_pkts_mem_to_simt=117361
icnt_total_pkts_simt_to_mem=113257
LD_mem_lat_dist  0 0 0 0 0 0 0 0 0 0 0 0 0 0 0 0 0 0 0 0 0 0 0 0 0 0 0
ST_mem_lat_dist  0 0 0 0 0 0 0 0 0 0 0 0 0 0 0 0 0 0 0 0 0 0 0 0 0 0 0
----------------------------Interconnect-DETAILS--------------------------------
Class 0:
Packet latency average = 16.406
	minimum = 6
	maximum = 141
Network latency average = 13.7801
	minimum = 6
	maximum = 141
Slowest packet = 75382
Flit latency average = 14.784
	minimum = 6
	maximum = 137
Slowest flit = 158237
Fragmentation average = 0
	minimum = 0
	maximum = 0
Injected packet rate average = 0.00124948
	minimum = 0.00105763 (at node 15)
	maximum = 0.00143071 (at node 36)
Accepted packet rate average = 0.00124948
	minimum = 0.00105763 (at node 15)
	maximum = 0.00143071 (at node 36)
Injected flit rate average = 0.00263115
	minimum = 0.00218941 (at node 15)
	maximum = 0.00310614 (at node 36)
Accepted flit rate average= 0.00263115
	minimum = 0.00226471 (at node 15)
	maximum = 0.00294641 (at node 28)
Injected packet length average = 2.10579
Accepted packet length average = 2.10579
Total in-flight flits = 0 (0 measured)
====== Overall Traffic Statistics ======
====== Traffic class 0 ======
Packet latency average = 16.406 (1 samples)
	minimum = 6 (1 samples)
	maximum = 141 (1 samples)
Network latency average = 13.7801 (1 samples)
	minimum = 6 (1 samples)
	maximum = 141 (1 samples)
Flit latency average = 14.784 (1 samples)
	minimum = 6 (1 samples)
	maximum = 137 (1 samples)
Fragmentation average = 0 (1 samples)
	minimum = 0 (1 samples)
	maximum = 0 (1 samples)
Injected packet rate average = 0.00124948 (1 samples)
	minimum = 0.00105763 (1 samples)
	maximum = 0.00143071 (1 samples)
Accepted packet rate average = 0.00124948 (1 samples)
	minimum = 0.00105763 (1 samples)
	maximum = 0.00143071 (1 samples)
Injected flit rate average = 0.00263115 (1 samples)
	minimum = 0.00218941 (1 samples)
	maximum = 0.00310614 (1 samples)
Accepted flit rate average = 0.00263115 (1 samples)
	minimum = 0.00226471 (1 samples)
	maximum = 0.00294641 (1 samples)
Injected packet size average = 2.10579 (1 samples)
Accepted packet size average = 2.10579 (1 samples)
Hops average = 1 (1 samples)
----------------------------END-of-Interconnect-DETAILS-------------------------


gpgpu_simulation_time = 0 days, 0 hrs, 49 min, 14 sec (2954 sec)
gpgpu_simulation_rate = 10456 (inst/sec)
gpgpu_simulation_rate = 371 (cycle/sec)
GPGPU-Sim: synchronize waiting for inactive GPU simulation
GPGPU-Sim API: Stream Manager State
GPGPU-Sim: detected inactive GPU simulation thread

GPGPU-Sim PTX: cudaLaunch for 0x0x402d5b (mode=performance simulation) on stream 0
GPGPU-Sim PTX: pushing kernel '_Z24bpnn_adjust_weights_cudaPfiS_iS_S_' to stream 0, gridDim= (1,1125,1) blockDim = (16,16,1) 
GPGPU-Sim uArch: Shader 27 bind to kernel 2 '_Z24bpnn_adjust_weights_cudaPfiS_iS_S_'
GPGPU-Sim uArch: CTA/core = 8, limited by: threads
GPGPU-Sim uArch: Shader 0 bind to kernel 2 '_Z24bpnn_adjust_weights_cudaPfiS_iS_S_'
GPGPU-Sim uArch: Shader 1 bind to kernel 2 '_Z24bpnn_adjust_weights_cudaPfiS_iS_S_'
GPGPU-Sim uArch: Shader 2 bind to kernel 2 '_Z24bpnn_adjust_weights_cudaPfiS_iS_S_'
GPGPU-Sim uArch: Shader 3 bind to kernel 2 '_Z24bpnn_adjust_weights_cudaPfiS_iS_S_'
GPGPU-Sim uArch: Shader 4 bind to kernel 2 '_Z24bpnn_adjust_weights_cudaPfiS_iS_S_'
GPGPU-Sim uArch: Shader 5 bind to kernel 2 '_Z24bpnn_adjust_weights_cudaPfiS_iS_S_'
GPGPU-Sim uArch: Shader 6 bind to kernel 2 '_Z24bpnn_adjust_weights_cudaPfiS_iS_S_'
GPGPU-Sim uArch: Shader 7 bind to kernel 2 '_Z24bpnn_adjust_weights_cudaPfiS_iS_S_'
GPGPU-Sim uArch: Shader 8 bind to kernel 2 '_Z24bpnn_adjust_weights_cudaPfiS_iS_S_'
GPGPU-Sim uArch: Shader 9 bind to kernel 2 '_Z24bpnn_adjust_weights_cudaPfiS_iS_S_'
GPGPU-Sim uArch: Shader 10 bind to kernel 2 '_Z24bpnn_adjust_weights_cudaPfiS_iS_S_'
GPGPU-Sim uArch: Shader 11 bind to kernel 2 '_Z24bpnn_adjust_weights_cudaPfiS_iS_S_'
GPGPU-Sim uArch: Shader 12 bind to kernel 2 '_Z24bpnn_adjust_weights_cudaPfiS_iS_S_'
GPGPU-Sim uArch: Shader 13 bind to kernel 2 '_Z24bpnn_adjust_weights_cudaPfiS_iS_S_'
GPGPU-Sim uArch: Shader 14 bind to kernel 2 '_Z24bpnn_adjust_weights_cudaPfiS_iS_S_'
GPGPU-Sim uArch: Shader 15 bind to kernel 2 '_Z24bpnn_adjust_weights_cudaPfiS_iS_S_'
GPGPU-Sim uArch: Shader 16 bind to kernel 2 '_Z24bpnn_adjust_weights_cudaPfiS_iS_S_'
GPGPU-Sim uArch: Shader 17 bind to kernel 2 '_Z24bpnn_adjust_weights_cudaPfiS_iS_S_'
GPGPU-Sim uArch: Shader 18 bind to kernel 2 '_Z24bpnn_adjust_weights_cudaPfiS_iS_S_'
GPGPU-Sim uArch: Shader 19 bind to kernel 2 '_Z24bpnn_adjust_weights_cudaPfiS_iS_S_'
GPGPU-Sim uArch: Shader 20 bind to kernel 2 '_Z24bpnn_adjust_weights_cudaPfiS_iS_S_'
GPGPU-Sim uArch: Shader 21 bind to kernel 2 '_Z24bpnn_adjust_weights_cudaPfiS_iS_S_'
GPGPU-Sim uArch: Shader 22 bind to kernel 2 '_Z24bpnn_adjust_weights_cudaPfiS_iS_S_'
GPGPU-Sim uArch: Shader 23 bind to kernel 2 '_Z24bpnn_adjust_weights_cudaPfiS_iS_S_'
GPGPU-Sim uArch: Shader 24 bind to kernel 2 '_Z24bpnn_adjust_weights_cudaPfiS_iS_S_'
GPGPU-Sim uArch: Shader 25 bind to kernel 2 '_Z24bpnn_adjust_weights_cudaPfiS_iS_S_'
GPGPU-Sim uArch: Shader 26 bind to kernel 2 '_Z24bpnn_adjust_weights_cudaPfiS_iS_S_'
Destroy streams for kernel 2: size 0
kernel_name = _Z24bpnn_adjust_weights_cudaPfiS_iS_S_ 
kernel_launch_uid = 2 
gpu_sim_cycle = 1566686
gpu_sim_insn = 15552352
gpu_ipc =       9.9269
gpu_tot_sim_cycle = 2903727
gpu_tot_sim_insn = 46440352
gpu_tot_ipc =      15.9934
gpu_tot_issued_cta = 2250
max_total_param_size = 0
gpu_stall_dramfull = 34279
gpu_stall_icnt2sh    = 15956
partiton_reqs_in_parallel = 34432813
partiton_reqs_in_parallel_total    = 19282802
partiton_level_parallism =      21.9781
partiton_level_parallism_total  =      18.4989
partiton_reqs_in_parallel_util = 34432813
partiton_reqs_in_parallel_util_total    = 19282802
gpu_sim_cycle_parition_util = 1566686
gpu_tot_sim_cycle_parition_util    = 876491
partiton_level_parallism_util =      21.9781
partiton_level_parallism_util_total  =      21.9860
partiton_replys_in_parallel = 127244
partiton_replys_in_parallel_total    = 54758
L2_BW  =       7.6982 GB/Sec
L2_BW_total  =       5.9409 GB/Sec
gpu_total_sim_rate=5315

========= Core cache stats =========
L1I_cache:
	L1I_total_cache_accesses = 894386
	L1I_total_cache_misses = 6334
	L1I_total_cache_miss_rate = 0.0071
	L1I_total_cache_pending_hits = 0
	L1I_total_cache_reservation_fails = 52344
L1D_cache:
	L1D_cache_core[0]: Access = 0, Miss = 0, Miss_rate = -nan, Pending_hits = 0, Reservation_fails = 0
	L1D_cache_core[1]: Access = 0, Miss = 0, Miss_rate = -nan, Pending_hits = 0, Reservation_fails = 0
	L1D_cache_core[2]: Access = 0, Miss = 0, Miss_rate = -nan, Pending_hits = 0, Reservation_fails = 0
	L1D_cache_core[3]: Access = 0, Miss = 0, Miss_rate = -nan, Pending_hits = 0, Reservation_fails = 0
	L1D_cache_core[4]: Access = 0, Miss = 0, Miss_rate = -nan, Pending_hits = 0, Reservation_fails = 0
	L1D_cache_core[5]: Access = 0, Miss = 0, Miss_rate = -nan, Pending_hits = 0, Reservation_fails = 0
	L1D_cache_core[6]: Access = 0, Miss = 0, Miss_rate = -nan, Pending_hits = 0, Reservation_fails = 0
	L1D_cache_core[7]: Access = 0, Miss = 0, Miss_rate = -nan, Pending_hits = 0, Reservation_fails = 0
	L1D_cache_core[8]: Access = 0, Miss = 0, Miss_rate = -nan, Pending_hits = 0, Reservation_fails = 0
	L1D_cache_core[9]: Access = 0, Miss = 0, Miss_rate = -nan, Pending_hits = 0, Reservation_fails = 0
	L1D_cache_core[10]: Access = 0, Miss = 0, Miss_rate = -nan, Pending_hits = 0, Reservation_fails = 0
	L1D_cache_core[11]: Access = 0, Miss = 0, Miss_rate = -nan, Pending_hits = 0, Reservation_fails = 0
	L1D_cache_core[12]: Access = 0, Miss = 0, Miss_rate = -nan, Pending_hits = 0, Reservation_fails = 0
	L1D_cache_core[13]: Access = 0, Miss = 0, Miss_rate = -nan, Pending_hits = 0, Reservation_fails = 0
	L1D_cache_core[14]: Access = 0, Miss = 0, Miss_rate = -nan, Pending_hits = 0, Reservation_fails = 0
	L1D_cache_core[15]: Access = 0, Miss = 0, Miss_rate = -nan, Pending_hits = 0, Reservation_fails = 0
	L1D_cache_core[16]: Access = 0, Miss = 0, Miss_rate = -nan, Pending_hits = 0, Reservation_fails = 0
	L1D_cache_core[17]: Access = 0, Miss = 0, Miss_rate = -nan, Pending_hits = 0, Reservation_fails = 0
	L1D_cache_core[18]: Access = 0, Miss = 0, Miss_rate = -nan, Pending_hits = 0, Reservation_fails = 0
	L1D_cache_core[19]: Access = 0, Miss = 0, Miss_rate = -nan, Pending_hits = 0, Reservation_fails = 0
	L1D_cache_core[20]: Access = 0, Miss = 0, Miss_rate = -nan, Pending_hits = 0, Reservation_fails = 0
	L1D_cache_core[21]: Access = 0, Miss = 0, Miss_rate = -nan, Pending_hits = 0, Reservation_fails = 0
	L1D_cache_core[22]: Access = 0, Miss = 0, Miss_rate = -nan, Pending_hits = 0, Reservation_fails = 0
	L1D_cache_core[23]: Access = 0, Miss = 0, Miss_rate = -nan, Pending_hits = 0, Reservation_fails = 0
	L1D_cache_core[24]: Access = 0, Miss = 0, Miss_rate = -nan, Pending_hits = 0, Reservation_fails = 0
	L1D_cache_core[25]: Access = 0, Miss = 0, Miss_rate = -nan, Pending_hits = 0, Reservation_fails = 0
	L1D_cache_core[26]: Access = 0, Miss = 0, Miss_rate = -nan, Pending_hits = 0, Reservation_fails = 0
	L1D_cache_core[27]: Access = 0, Miss = 0, Miss_rate = -nan, Pending_hits = 0, Reservation_fails = 0
	L1D_total_cache_accesses = 0
	L1D_total_cache_misses = 0
	L1D_total_cache_pending_hits = 0
	L1D_total_cache_reservation_fails = 0
	L1D_cache_data_port_util = 0.000
	L1D_cache_fill_port_util = 0.000
L1C_cache:
	L1C_total_cache_accesses = 81000
	L1C_total_cache_misses = 1792
	L1C_total_cache_miss_rate = 0.0221
	L1C_total_cache_pending_hits = 0
	L1C_total_cache_reservation_fails = 4886
L1T_cache:
	L1T_total_cache_accesses = 0
	L1T_total_cache_misses = 0
	L1T_total_cache_pending_hits = 0
	L1T_total_cache_reservation_fails = 0

Total_core_cache_stats:
	Total_core_cache_stats_breakdown[GLOBAL_ACC_R][HIT] = 0
	Total_core_cache_stats_breakdown[GLOBAL_ACC_R][HIT_RESERVED] = 0
	Total_core_cache_stats_breakdown[GLOBAL_ACC_R][MISS] = 0
	Total_core_cache_stats_breakdown[GLOBAL_ACC_R][RESERVATION_FAIL] = 0
	Total_core_cache_stats_breakdown[LOCAL_ACC_R][HIT] = 0
	Total_core_cache_stats_breakdown[LOCAL_ACC_R][HIT_RESERVED] = 0
	Total_core_cache_stats_breakdown[LOCAL_ACC_R][MISS] = 0
	Total_core_cache_stats_breakdown[LOCAL_ACC_R][RESERVATION_FAIL] = 0
	Total_core_cache_stats_breakdown[CONST_ACC_R][HIT] = 79208
	Total_core_cache_stats_breakdown[CONST_ACC_R][HIT_RESERVED] = 0
	Total_core_cache_stats_breakdown[CONST_ACC_R][MISS] = 1792
	Total_core_cache_stats_breakdown[CONST_ACC_R][RESERVATION_FAIL] = 4886
	Total_core_cache_stats_breakdown[TEXTURE_ACC_R][HIT] = 0
	Total_core_cache_stats_breakdown[TEXTURE_ACC_R][HIT_RESERVED] = 0
	Total_core_cache_stats_breakdown[TEXTURE_ACC_R][MISS] = 0
	Total_core_cache_stats_breakdown[TEXTURE_ACC_R][RESERVATION_FAIL] = 0
	Total_core_cache_stats_breakdown[GLOBAL_ACC_W][HIT] = 0
	Total_core_cache_stats_breakdown[GLOBAL_ACC_W][HIT_RESERVED] = 0
	Total_core_cache_stats_breakdown[GLOBAL_ACC_W][MISS] = 0
	Total_core_cache_stats_breakdown[GLOBAL_ACC_W][RESERVATION_FAIL] = 0
	Total_core_cache_stats_breakdown[LOCAL_ACC_W][HIT] = 0
	Total_core_cache_stats_breakdown[LOCAL_ACC_W][HIT_RESERVED] = 0
	Total_core_cache_stats_breakdown[LOCAL_ACC_W][MISS] = 0
	Total_core_cache_stats_breakdown[LOCAL_ACC_W][RESERVATION_FAIL] = 0
	Total_core_cache_stats_breakdown[L1_WRBK_ACC][HIT] = 0
	Total_core_cache_stats_breakdown[L1_WRBK_ACC][HIT_RESERVED] = 0
	Total_core_cache_stats_breakdown[L1_WRBK_ACC][MISS] = 0
	Total_core_cache_stats_breakdown[L1_WRBK_ACC][RESERVATION_FAIL] = 0
	Total_core_cache_stats_breakdown[L2_WRBK_ACC][HIT] = 0
	Total_core_cache_stats_breakdown[L2_WRBK_ACC][HIT_RESERVED] = 0
	Total_core_cache_stats_breakdown[L2_WRBK_ACC][MISS] = 0
	Total_core_cache_stats_breakdown[L2_WRBK_ACC][RESERVATION_FAIL] = 0
	Total_core_cache_stats_breakdown[INST_ACC_R][HIT] = 888052
	Total_core_cache_stats_breakdown[INST_ACC_R][HIT_RESERVED] = 0
	Total_core_cache_stats_breakdown[INST_ACC_R][MISS] = 6334
	Total_core_cache_stats_breakdown[INST_ACC_R][RESERVATION_FAIL] = 52344
	Total_core_cache_stats_breakdown[L1_WR_ALLOC_R][HIT] = 0
	Total_core_cache_stats_breakdown[L1_WR_ALLOC_R][HIT_RESERVED] = 0
	Total_core_cache_stats_breakdown[L1_WR_ALLOC_R][MISS] = 0
	Total_core_cache_stats_breakdown[L1_WR_ALLOC_R][RESERVATION_FAIL] = 0
	Total_core_cache_stats_breakdown[L2_WR_ALLOC_R][HIT] = 0
	Total_core_cache_stats_breakdown[L2_WR_ALLOC_R][HIT_RESERVED] = 0
[...]
F:  2306161----T:  2308766 	 St: c0321000 Sz: 4096 	 Sm: 0 	 T: memcpy_h2d(1.758947)
F:  2308766----T:  2311371 	 St: c0322000 Sz: 4096 	 Sm: 0 	 T: memcpy_h2d(1.758947)
F:  2311371----T:  2313976 	 St: c0323000 Sz: 4096 	 Sm: 0 	 T: memcpy_h2d(1.758947)
F:  2313976----T:  2316581 	 St: c0324000 Sz: 4096 	 Sm: 0 	 T: memcpy_h2d(1.758947)
F:  2316581----T:  2319186 	 St: c0325000 Sz: 4096 	 Sm: 0 	 T: memcpy_h2d(1.758947)
F:  2319186----T:  2321791 	 St: c0326000 Sz: 4096 	 Sm: 0 	 T: memcpy_h2d(1.758947)
F:  2321791----T:  2324396 	 St: c0327000 Sz: 4096 	 Sm: 0 	 T: memcpy_h2d(1.758947)
F:  2324396----T:  2327001 	 St: c0328000 Sz: 4096 	 Sm: 0 	 T: memcpy_h2d(1.758947)
F:  2327001----T:  2329606 	 St: c0329000 Sz: 4096 	 Sm: 0 	 T: memcpy_h2d(1.758947)
F:  2329606----T:  2332211 	 St: c032a000 Sz: 4096 	 Sm: 0 	 T: memcpy_h2d(1.758947)
F:  2332211----T:  2334816 	 St: c032b000 Sz: 4096 	 Sm: 0 	 T: memcpy_h2d(1.758947)
F:  2334816----T:  2337421 	 St: c032c000 Sz: 4096 	 Sm: 0 	 T: memcpy_h2d(1.758947)
F:  2337421----T:  2340026 	 St: c032d000 Sz: 4096 	 Sm: 0 	 T: memcpy_h2d(1.758947)
F:  2340026----T:  2342631 	 St: c032e000 Sz: 4096 	 Sm: 0 	 T: memcpy_h2d(1.758947)
F:  2342631----T:  2345236 	 St: c032f000 Sz: 4096 	 Sm: 0 	 T: memcpy_h2d(1.758947)
F:  2345236----T:  2347841 	 St: c0330000 Sz: 4096 	 Sm: 0 	 T: memcpy_h2d(1.758947)
F:  2347841----T:  2350446 	 St: c0331000 Sz: 4096 	 Sm: 0 	 T: memcpy_h2d(1.758947)
F:  2350446----T:  2353051 	 St: c0332000 Sz: 4096 	 Sm: 0 	 T: memcpy_h2d(1.758947)
F:  2353051----T:  2355656 	 St: c0333000 Sz: 4096 	 Sm: 0 	 T: memcpy_h2d(1.758947)
F:  2355656----T:  2358261 	 St: c0334000 Sz: 4096 	 Sm: 0 	 T: memcpy_h2d(1.758947)
F:  2358261----T:  2360866 	 St: c0335000 Sz: 4096 	 Sm: 0 	 T: memcpy_h2d(1.758947)
F:  2360866----T:  2363471 	 St: c0336000 Sz: 4096 	 Sm: 0 	 T: memcpy_h2d(1.758947)
F:  2363471----T:  2366076 	 St: c0337000 Sz: 4096 	 Sm: 0 	 T: memcpy_h2d(1.758947)
F:  2366076----T:  2368681 	 St: c0338000 Sz: 4096 	 Sm: 0 	 T: memcpy_h2d(1.758947)
F:  2368681----T:  2371286 	 St: c0339000 Sz: 4096 	 Sm: 0 	 T: memcpy_h2d(1.758947)
F:  2371286----T:  2373891 	 St: c033a000 Sz: 4096 	 Sm: 0 	 T: memcpy_h2d(1.758947)
F:  2373891----T:  2376496 	 St: c033b000 Sz: 4096 	 Sm: 0 	 T: memcpy_h2d(1.758947)
F:  2376496----T:  2379101 	 St: c033c000 Sz: 4096 	 Sm: 0 	 T: memcpy_h2d(1.758947)
F:  2379101----T:  2381706 	 St: c033d000 Sz: 4096 	 Sm: 0 	 T: memcpy_h2d(1.758947)
F:  2381706----T:  2384311 	 St: c033e000 Sz: 4096 	 Sm: 0 	 T: memcpy_h2d(1.758947)
F:  2384311----T:  2386916 	 St: c033f000 Sz: 4096 	 Sm: 0 	 T: memcpy_h2d(1.758947)
F:  2386916----T:  2389521 	 St: c0340000 Sz: 4096 	 Sm: 0 	 T: memcpy_h2d(1.758947)
F:  2389521----T:  2392126 	 St: c0341000 Sz: 4096 	 Sm: 0 	 T: memcpy_h2d(1.758947)
F:  2392126----T:  2394731 	 St: c0342000 Sz: 4096 	 Sm: 0 	 T: memcpy_h2d(1.758947)
F:  2394731----T:  2397336 	 St: c0343000 Sz: 4096 	 Sm: 0 	 T: memcpy_h2d(1.758947)
F:  2397336----T:  2399941 	 St: c0344000 Sz: 4096 	 Sm: 0 	 T: memcpy_h2d(1.758947)
F:  2399941----T:  2402546 	 St: c0345000 Sz: 4096 	 Sm: 0 	 T: memcpy_h2d(1.758947)
F:  2402546----T:  2405151 	 St: c0346000 Sz: 4096 	 Sm: 0 	 T: memcpy_h2d(1.758947)
F:  2405151----T:  2407756 	 St: c0347000 Sz: 4096 	 Sm: 0 	 T: memcpy_h2d(1.758947)
F:  2407756----T:  2410361 	 St: c0348000 Sz: 4096 	 Sm: 0 	 T: memcpy_h2d(1.758947)
F:  2410361----T:  2412966 	 St: c0349000 Sz: 4096 	 Sm: 0 	 T: memcpy_h2d(1.758947)
F:  2412966----T:  2415571 	 St: c034a000 Sz: 4096 	 Sm: 0 	 T: memcpy_h2d(1.758947)
F:  2415571----T:  2418176 	 St: c034b000 Sz: 4096 	 Sm: 0 	 T: memcpy_h2d(1.758947)
F:  2418176----T:  2420781 	 St: c034c000 Sz: 4096 	 Sm: 0 	 T: memcpy_h2d(1.758947)
F:  2420781----T:  2423386 	 St: c034d000 Sz: 4096 	 Sm: 0 	 T: memcpy_h2d(1.758947)
F:  2423386----T:  2425991 	 St: c034e000 Sz: 4096 	 Sm: 0 	 T: memcpy_h2d(1.758947)
F:  2425991----T:  2428596 	 St: c034f000 Sz: 4096 	 Sm: 0 	 T: memcpy_h2d(1.758947)
F:  2428596----T:  2431201 	 St: c0350000 Sz: 4096 	 Sm: 0 	 T: memcpy_h2d(1.758947)
F:  2431201----T:  2433806 	 St: c0351000 Sz: 4096 	 Sm: 0 	 T: memcpy_h2d(1.758947)
F:  2433806----T:  2436411 	 St: c0352000 Sz: 4096 	 Sm: 0 	 T: memcpy_h2d(1.758947)
F:  2436411----T:  2439016 	 St: c0353000 Sz: 4096 	 Sm: 0 	 T: memcpy_h2d(1.758947)
F:  2439016----T:  2441621 	 St: c0354000 Sz: 4096 	 Sm: 0 	 T: memcpy_h2d(1.758947)
F:  2441621----T:  2444226 	 St: c0355000 Sz: 4096 	 Sm: 0 	 T: memcpy_h2d(1.758947)
F:  2444226----T:  2446831 	 St: c0356000 Sz: 4096 	 Sm: 0 	 T: memcpy_h2d(1.758947)
F:  2446831----T:  2449436 	 St: c0357000 Sz: 4096 	 Sm: 0 	 T: memcpy_h2d(1.758947)
F:  2449436----T:  2452041 	 St: c0358000 Sz: 4096 	 Sm: 0 	 T: memcpy_h2d(1.758947)
F:  2452041----T:  2454646 	 St: c0359000 Sz: 4096 	 Sm: 0 	 T: memcpy_h2d(1.758947)
F:  2454646----T:  2457251 	 St: c01f4000 Sz: 4096 	 Sm: 0 	 T: memcpy_h2d(1.758947)
F:  2457251----T:  2459856 	 St: c035a000 Sz: 4096 	 Sm: 0 	 T: memcpy_h2d(1.758947)
F:  2459856----T:  2462461 	 St: c01f5000 Sz: 4096 	 Sm: 0 	 T: memcpy_h2d(1.758947)
F:  2462461----T:  2465066 	 St: c01f6000 Sz: 4096 	 Sm: 0 	 T: memcpy_h2d(1.758947)
F:  2465066----T:  2467671 	 St: c01f7000 Sz: 4096 	 Sm: 0 	 T: memcpy_h2d(1.758947)
F:  2467671----T:  2470276 	 St: c01f8000 Sz: 4096 	 Sm: 0 	 T: memcpy_h2d(1.758947)
F:  2470276----T:  2472881 	 St: c01f9000 Sz: 4096 	 Sm: 0 	 T: memcpy_h2d(1.758947)
F:  2472881----T:  2475486 	 St: c01fa000 Sz: 4096 	 Sm: 0 	 T: memcpy_h2d(1.758947)
F:  2475486----T:  2478091 	 St: c01fb000 Sz: 4096 	 Sm: 0 	 T: memcpy_h2d(1.758947)
F:  2478091----T:  2480696 	 St: c01fc000 Sz: 4096 	 Sm: 0 	 T: memcpy_h2d(1.758947)
F:  2480696----T:  2483301 	 St: c01fd000 Sz: 4096 	 Sm: 0 	 T: memcpy_h2d(1.758947)
F:  2483301----T:  2485906 	 St: c01fe000 Sz: 4096 	 Sm: 0 	 T: memcpy_h2d(1.758947)
F:  2485906----T:  2488511 	 St: c01ff000 Sz: 4096 	 Sm: 0 	 T: memcpy_h2d(1.758947)
F:  2488511----T:  2491116 	 St: c0200000 Sz: 4096 	 Sm: 0 	 T: memcpy_h2d(1.758947)
F:  2491116----T:  2493721 	 St: c0201000 Sz: 4096 	 Sm: 0 	 T: memcpy_h2d(1.758947)
F:  2493721----T:  2496326 	 St: c0202000 Sz: 4096 	 Sm: 0 	 T: memcpy_h2d(1.758947)
F:  2496326----T:  2498931 	 St: c0203000 Sz: 4096 	 Sm: 0 	 T: memcpy_h2d(1.758947)
F:  2498931----T:  2501536 	 St: c0204000 Sz: 4096 	 Sm: 0 	 T: memcpy_h2d(1.758947)
F:  2501536----T:  2504141 	 St: c0205000 Sz: 4096 	 Sm: 0 	 T: memcpy_h2d(1.758947)
F:  2504141----T:  2506746 	 St: c0206000 Sz: 4096 	 Sm: 0 	 T: memcpy_h2d(1.758947)
F:  2506746----T:  2509351 	 St: c0207000 Sz: 4096 	 Sm: 0 	 T: memcpy_h2d(1.758947)
F:  2509351----T:  2511956 	 St: c0208000 Sz: 4096 	 Sm: 0 	 T: memcpy_h2d(1.758947)
F:  2511956----T:  2514561 	 St: c0209000 Sz: 4096 	 Sm: 0 	 T: memcpy_h2d(1.758947)
F:  2514561----T:  2517166 	 St: c020a000 Sz: 4096 	 Sm: 0 	 T: memcpy_h2d(1.758947)
F:  2517166----T:  2519771 	 St: c020b000 Sz: 4096 	 Sm: 0 	 T: memcpy_h2d(1.758947)
F:  2519771----T:  2522376 	 St: c020c000 Sz: 4096 	 Sm: 0 	 T: memcpy_h2d(1.758947)
F:  2522376----T:  2524981 	 St: c020d000 Sz: 4096 	 Sm: 0 	 T: memcpy_h2d(1.758947)
F:  2524981----T:  2527586 	 St: c020e000 Sz: 4096 	 Sm: 0 	 T: memcpy_h2d(1.758947)
F:  2527586----T:  2530191 	 St: c020f000 Sz: 4096 	 Sm: 0 	 T: memcpy_h2d(1.758947)
F:  2530191----T:  2532796 	 St: c0210000 Sz: 4096 	 Sm: 0 	 T: memcpy_h2d(1.758947)
F:  2532796----T:  2535401 	 St: c0211000 Sz: 4096 	 Sm: 0 	 T: memcpy_h2d(1.758947)
F:  2535401----T:  2538006 	 St: c0212000 Sz: 4096 	 Sm: 0 	 T: memcpy_h2d(1.758947)
F:  2538006----T:  2540611 	 St: c0213000 Sz: 4096 	 Sm: 0 	 T: memcpy_h2d(1.758947)
F:  2540611----T:  2543216 	 St: c0214000 Sz: 4096 	 Sm: 0 	 T: memcpy_h2d(1.758947)
F:  2543216----T:  2545821 	 St: c0215000 Sz: 4096 	 Sm: 0 	 T: memcpy_h2d(1.758947)
F:  2545821----T:  2548426 	 St: c0216000 Sz: 4096 	 Sm: 0 	 T: memcpy_h2d(1.758947)
F:  2548426----T:  2551031 	 St: c0217000 Sz: 4096 	 Sm: 0 	 T: memcpy_h2d(1.758947)
F:  2551031----T:  2553636 	 St: c0218000 Sz: 4096 	 Sm: 0 	 T: memcpy_h2d(1.758947)
F:  2553636----T:  2556241 	 St: c0219000 Sz: 4096 	 Sm: 0 	 T: memcpy_h2d(1.758947)
F:  2556241----T:  2558846 	 St: c021a000 Sz: 4096 	 Sm: 0 	 T: memcpy_h2d(1.758947)
F:  2558846----T:  2561451 	 St: c021b000 Sz: 4096 	 Sm: 0 	 T: memcpy_h2d(1.758947)
F:  2561451----T:  2564056 	 St: c021c000 Sz: 4096 	 Sm: 0 	 T: memcpy_h2d(1.758947)
F:  2564056----T:  2566661 	 St: c021d000 Sz: 4096 	 Sm: 0 	 T: memcpy_h2d(1.758947)
F:  2566661----T:  2569266 	 St: c021e000 Sz: 4096 	 Sm: 0 	 T: memcpy_h2d(1.758947)
F:  2569266----T:  2571871 	 St: c021f000 Sz: 4096 	 Sm: 0 	 T: memcpy_h2d(1.758947)
F:  2571871----T:  2574476 	 St: c0220000 Sz: 4096 	 Sm: 0 	 T: memcpy_h2d(1.758947)
F:  2574476----T:  2577081 	 St: c0221000 Sz: 4096 	 Sm: 0 	 T: memcpy_h2d(1.758947)
F:  2577081----T:  2579686 	 St: c0222000 Sz: 4096 	 Sm: 0 	 T: memcpy_h2d(1.758947)
F:  2579686----T:  2582291 	 St: c0223000 Sz: 4096 	 Sm: 0 	 T: memcpy_h2d(1.758947)
F:  2582291----T:  2584896 	 St: c0224000 Sz: 4096 	 Sm: 0 	 T: memcpy_h2d(1.758947)
F:  2584896----T:  2587501 	 St: c0225000 Sz: 4096 	 Sm: 0 	 T: memcpy_h2d(1.758947)
F:  2587501----T:  2590106 	 St: c0226000 Sz: 4096 	 Sm: 0 	 T: memcpy_h2d(1.758947)
F:  2590106----T:  2592711 	 St: c0227000 Sz: 4096 	 Sm: 0 	 T: memcpy_h2d(1.758947)
F:  2592711----T:  2595316 	 St: c0228000 Sz: 4096 	 Sm: 0 	 T: memcpy_h2d(1.758947)
F:  2595316----T:  2597921 	 St: c0229000 Sz: 4096 	 Sm: 0 	 T: memcpy_h2d(1.758947)
F:  2597921----T:  2600526 	 St: c022a000 Sz: 4096 	 Sm: 0 	 T: memcpy_h2d(1.758947)
F:  2600526----T:  2603131 	 St: c022b000 Sz: 4096 	 Sm: 0 	 T: memcpy_h2d(1.758947)
F:  2603131----T:  2605736 	 St: c022c000 Sz: 4096 	 Sm: 0 	 T: memcpy_h2d(1.758947)
F:  2605736----T:  2608341 	 St: c022d000 Sz: 4096 	 Sm: 0 	 T: memcpy_h2d(1.758947)
F:  2608341----T:  2610946 	 St: c022e000 Sz: 4096 	 Sm: 0 	 T: memcpy_h2d(1.758947)
F:  2610946----T:  2613551 	 St: c022f000 Sz: 4096 	 Sm: 0 	 T: memcpy_h2d(1.758947)
F:  2613551----T:  2616156 	 St: c035b000 Sz: 4096 	 Sm: 0 	 T: memcpy_h2d(1.758947)
F:  2616156----T:  2618761 	 St: c0230000 Sz: 4096 	 Sm: 0 	 T: memcpy_h2d(1.758947)
F:  2618761----T:  2621366 	 St: c035c000 Sz: 4096 	 Sm: 0 	 T: memcpy_h2d(1.758947)
F:  2621366----T:  2623971 	 St: c035d000 Sz: 4096 	 Sm: 0 	 T: memcpy_h2d(1.758947)
F:  2623971----T:  2626576 	 St: c035e000 Sz: 4096 	 Sm: 0 	 T: memcpy_h2d(1.758947)
F:  2626576----T:  2629181 	 St: c035f000 Sz: 4096 	 Sm: 0 	 T: memcpy_h2d(1.758947)
F:  2629181----T:  2631786 	 St: c0360000 Sz: 4096 	 Sm: 0 	 T: memcpy_h2d(1.758947)
F:  2631786----T:  2634391 	 St: c0361000 Sz: 4096 	 Sm: 0 	 T: memcpy_h2d(1.758947)
F:  2634391----T:  2636996 	 St: c0362000 Sz: 4096 	 Sm: 0 	 T: memcpy_h2d(1.758947)
F:  2636996----T:  2639601 	 St: c0363000 Sz: 4096 	 Sm: 0 	 T: memcpy_h2d(1.758947)
F:  2639601----T:  2642206 	 St: c0364000 Sz: 4096 	 Sm: 0 	 T: memcpy_h2d(1.758947)
F:  2642206----T:  2644811 	 St: c0365000 Sz: 4096 	 Sm: 0 	 T: memcpy_h2d(1.758947)
F:  2644811----T:  2647416 	 St: c0366000 Sz: 4096 	 Sm: 0 	 T: memcpy_h2d(1.758947)
F:  2647416----T:  2650021 	 St: c0367000 Sz: 4096 	 Sm: 0 	 T: memcpy_h2d(1.758947)
F:  2650021----T:  2652626 	 St: c0368000 Sz: 4096 	 Sm: 0 	 T: memcpy_h2d(1.758947)
F:  2652626----T:  2655231 	 St: c0369000 Sz: 4096 	 Sm: 0 	 T: memcpy_h2d(1.758947)
F:  2655231----T:  2657836 	 St: c036a000 Sz: 4096 	 Sm: 0 	 T: memcpy_h2d(1.758947)
F:  2657836----T:  2660441 	 St: c036b000 Sz: 4096 	 Sm: 0 	 T: memcpy_h2d(1.758947)
F:  2660441----T:  2663046 	 St: c036c000 Sz: 4096 	 Sm: 0 	 T: memcpy_h2d(1.758947)
F:  2663046----T:  2665651 	 St: c036d000 Sz: 4096 	 Sm: 0 	 T: memcpy_h2d(1.758947)
F:  2665651----T:  2668256 	 St: c036e000 Sz: 4096 	 Sm: 0 	 T: memcpy_h2d(1.758947)
F:  2668256----T:  2670861 	 St: c036f000 Sz: 4096 	 Sm: 0 	 T: memcpy_h2d(1.758947)
F:  2670861----T:  2673466 	 St: c0370000 Sz: 4096 	 Sm: 0 	 T: memcpy_h2d(1.758947)
F:  2673466----T:  2676071 	 St: c0371000 Sz: 4096 	 Sm: 0 	 T: memcpy_h2d(1.758947)
F:  2676071----T:  2678676 	 St: c0372000 Sz: 4096 	 Sm: 0 	 T: memcpy_h2d(1.758947)
F:  2678676----T:  2681281 	 St: c0373000 Sz: 4096 	 Sm: 0 	 T: memcpy_h2d(1.758947)
F:  2681281----T:  2683886 	 St: c0374000 Sz: 4096 	 Sm: 0 	 T: memcpy_h2d(1.758947)
F:  2683886----T:  2686491 	 St: c0375000 Sz: 4096 	 Sm: 0 	 T: memcpy_h2d(1.758947)
F:  2686491----T:  2689096 	 St: c0376000 Sz: 4096 	 Sm: 0 	 T: memcpy_h2d(1.758947)
F:  2689096----T:  2691701 	 St: c0377000 Sz: 4096 	 Sm: 0 	 T: memcpy_h2d(1.758947)
F:  2691701----T:  2694306 	 St: c0378000 Sz: 4096 	 Sm: 0 	 T: memcpy_h2d(1.758947)
F:  2694306----T:  2696911 	 St: c0379000 Sz: 4096 	 Sm: 0 	 T: memcpy_h2d(1.758947)
F:  2696911----T:  2699516 	 St: c037a000 Sz: 4096 	 Sm: 0 	 T: memcpy_h2d(1.758947)
F:  2699516----T:  2702121 	 St: c037b000 Sz: 4096 	 Sm: 0 	 T: memcpy_h2d(1.758947)
F:  2702121----T:  2704726 	 St: c037c000 Sz: 4096 	 Sm: 0 	 T: memcpy_h2d(1.758947)
F:  2704726----T:  2707331 	 St: c037d000 Sz: 4096 	 Sm: 0 	 T: memcpy_h2d(1.758947)
F:  2707331----T:  2709936 	 St: c037e000 Sz: 4096 	 Sm: 0 	 T: memcpy_h2d(1.758947)
F:  2709936----T:  2712541 	 St: c037f000 Sz: 4096 	 Sm: 0 	 T: memcpy_h2d(1.758947)
F:  2712541----T:  2715146 	 St: c0380000 Sz: 4096 	 Sm: 0 	 T: memcpy_h2d(1.758947)
F:  2715146----T:  2717751 	 St: c0381000 Sz: 4096 	 Sm: 0 	 T: memcpy_h2d(1.758947)
F:  2717751----T:  2720356 	 St: c0382000 Sz: 4096 	 Sm: 0 	 T: memcpy_h2d(1.758947)
F:  2720356----T:  2722961 	 St: c0383000 Sz: 4096 	 Sm: 0 	 T: memcpy_h2d(1.758947)
F:  2722961----T:  2725566 	 St: c0384000 Sz: 4096 	 Sm: 0 	 T: memcpy_h2d(1.758947)
F:  2725566----T:  2728171 	 St: c0385000 Sz: 4096 	 Sm: 0 	 T: memcpy_h2d(1.758947)
F:  2728171----T:  2730776 	 St: c0386000 Sz: 4096 	 Sm: 0 	 T: memcpy_h2d(1.758947)
F:  2730776----T:  2733381 	 St: c0387000 Sz: 4096 	 Sm: 0 	 T: memcpy_h2d(1.758947)
F:  2733381----T:  2735986 	 St: c0388000 Sz: 4096 	 Sm: 0 	 T: memcpy_h2d(1.758947)
F:  2735986----T:  2738591 	 St: c0389000 Sz: 4096 	 Sm: 0 	 T: memcpy_h2d(1.758947)
F:  2738591----T:  2741196 	 St: c038a000 Sz: 4096 	 Sm: 0 	 T: memcpy_h2d(1.758947)
F:  2741196----T:  2743801 	 St: c038b000 Sz: 4096 	 Sm: 0 	 T: memcpy_h2d(1.758947)
F:  2743801----T:  2746406 	 St: c038c000 Sz: 4096 	 Sm: 0 	 T: memcpy_h2d(1.758947)
F:  2746406----T:  2749011 	 St: c038d000 Sz: 4096 	 Sm: 0 	 T: memcpy_h2d(1.758947)
F:  2749011----T:  2751616 	 St: c038e000 Sz: 4096 	 Sm: 0 	 T: memcpy_h2d(1.758947)
F:  2751616----T:  2754221 	 St: c038f000 Sz: 4096 	 Sm: 0 	 T: memcpy_h2d(1.758947)
F:  2754221----T:  2756826 	 St: c0390000 Sz: 4096 	 Sm: 0 	 T: memcpy_h2d(1.758947)
F:  2756826----T:  2759431 	 St: c0391000 Sz: 4096 	 Sm: 0 	 T: memcpy_h2d(1.758947)
F:  2759431----T:  2762036 	 St: c0392000 Sz: 4096 	 Sm: 0 	 T: memcpy_h2d(1.758947)
F:  2762036----T:  2764641 	 St: c0231000 Sz: 4096 	 Sm: 0 	 T: memcpy_h2d(1.758947)
F:  2764641----T:  2767246 	 St: c0232000 Sz: 4096 	 Sm: 0 	 T: memcpy_h2d(1.758947)
F:  2767246----T:  2769851 	 St: c0233000 Sz: 4096 	 Sm: 0 	 T: memcpy_h2d(1.758947)
F:  2769851----T:  2772456 	 St: c0234000 Sz: 4096 	 Sm: 0 	 T: memcpy_h2d(1.758947)
F:  2772456----T:  2775061 	 St: c0235000 Sz: 4096 	 Sm: 0 	 T: memcpy_h2d(1.758947)
F:  2775061----T:  2777666 	 St: c0236000 Sz: 4096 	 Sm: 0 	 T: memcpy_h2d(1.758947)
F:  2777666----T:  2780271 	 St: c0237000 Sz: 4096 	 Sm: 0 	 T: memcpy_h2d(1.758947)
F:  2780271----T:  2782876 	 St: c0238000 Sz: 4096 	 Sm: 0 	 T: memcpy_h2d(1.758947)
F:  2782876----T:  2785481 	 St: c0239000 Sz: 4096 	 Sm: 0 	 T: memcpy_h2d(1.758947)
F:  2785481----T:  2788086 	 St: c023a000 Sz: 4096 	 Sm: 0 	 T: memcpy_h2d(1.758947)
F:  2788086----T:  2790691 	 St: c023b000 Sz: 4096 	 Sm: 0 	 T: memcpy_h2d(1.758947)
F:  2790691----T:  2793296 	 St: c023c000 Sz: 4096 	 Sm: 0 	 T: memcpy_h2d(1.758947)
F:  2793296----T:  2795901 	 St: c023d000 Sz: 4096 	 Sm: 0 	 T: memcpy_h2d(1.758947)
F:  2795901----T:  2798506 	 St: c023e000 Sz: 4096 	 Sm: 0 	 T: memcpy_h2d(1.758947)
F:  2798506----T:  2801111 	 St: c023f000 Sz: 4096 	 Sm: 0 	 T: memcpy_h2d(1.758947)
F:  2801111----T:  2803716 	 St: c0240000 Sz: 4096 	 Sm: 0 	 T: memcpy_h2d(1.758947)
F:  2803716----T:  2806321 	 St: c0241000 Sz: 4096 	 Sm: 0 	 T: memcpy_h2d(1.758947)
F:  2806321----T:  2808926 	 St: c0242000 Sz: 4096 	 Sm: 0 	 T: memcpy_h2d(1.758947)
F:  2808926----T:  2811531 	 St: c0243000 Sz: 4096 	 Sm: 0 	 T: memcpy_h2d(1.758947)
F:  2811531----T:  2814136 	 St: c0244000 Sz: 4096 	 Sm: 0 	 T: memcpy_h2d(1.758947)
F:  2814136----T:  2816741 	 St: c0245000 Sz: 4096 	 Sm: 0 	 T: memcpy_h2d(1.758947)
F:  2816741----T:  2819346 	 St: c0246000 Sz: 4096 	 Sm: 0 	 T: memcpy_h2d(1.758947)
F:  2819346----T:  2821951 	 St: c0247000 Sz: 4096 	 Sm: 0 	 T: memcpy_h2d(1.758947)
F:  2821951----T:  2824556 	 St: c0248000 Sz: 4096 	 Sm: 0 	 T: memcpy_h2d(1.758947)
F:  2824556----T:  2827161 	 St: c0249000 Sz: 4096 	 Sm: 0 	 T: memcpy_h2d(1.758947)
F:  2827161----T:  2829766 	 St: c024a000 Sz: 4096 	 Sm: 0 	 T: memcpy_h2d(1.758947)
F:  2829766----T:  2832371 	 St: c024b000 Sz: 4096 	 Sm: 0 	 T: memcpy_h2d(1.758947)
F:  2832371----T:  2834976 	 St: c024c000 Sz: 4096 	 Sm: 0 	 T: memcpy_h2d(1.758947)
F:  2834976----T:  2837581 	 St: c024d000 Sz: 4096 	 Sm: 0 	 T: memcpy_h2d(1.758947)
F:  2837581----T:  2840186 	 St: c024e000 Sz: 4096 	 Sm: 0 	 T: memcpy_h2d(1.758947)
F:  2840186----T:  2842791 	 St: c024f000 Sz: 4096 	 Sm: 0 	 T: memcpy_h2d(1.758947)
F:  2842791----T:  2845396 	 St: c0250000 Sz: 4096 	 Sm: 0 	 T: memcpy_h2d(1.758947)
F:  2845396----T:  2848001 	 St: c0251000 Sz: 4096 	 Sm: 0 	 T: memcpy_h2d(1.758947)
F:  2848001----T:  2850606 	 St: c0252000 Sz: 4096 	 Sm: 0 	 T: memcpy_h2d(1.758947)
F:  2850606----T:  2853211 	 St: c0253000 Sz: 4096 	 Sm: 0 	 T: memcpy_h2d(1.758947)
F:  2853211----T:  2855816 	 St: c0254000 Sz: 4096 	 Sm: 0 	 T: memcpy_h2d(1.758947)
F:  2855816----T:  2858421 	 St: c0255000 Sz: 4096 	 Sm: 0 	 T: memcpy_h2d(1.758947)
F:  2858421----T:  2861026 	 St: c0256000 Sz: 4096 	 Sm: 0 	 T: memcpy_h2d(1.758947)
F:  2861026----T:  2863631 	 St: c0257000 Sz: 4096 	 Sm: 0 	 T: memcpy_h2d(1.758947)
F:  2863631----T:  2866236 	 St: c0258000 Sz: 4096 	 Sm: 0 	 T: memcpy_h2d(1.758947)
F:  2866236----T:  2868841 	 St: c0259000 Sz: 4096 	 Sm: 0 	 T: memcpy_h2d(1.758947)
F:  2868841----T:  2871446 	 St: c025a000 Sz: 4096 	 Sm: 0 	 T: memcpy_h2d(1.758947)
F:  2871446----T:  2874051 	 St: c025b000 Sz: 4096 	 Sm: 0 	 T: memcpy_h2d(1.758947)
F:  2874051----T:  2876656 	 St: c025c000 Sz: 4096 	 Sm: 0 	 T: memcpy_h2d(1.758947)
F:  2876656----T:  2879261 	 St: c025d000 Sz: 4096 	 Sm: 0 	 T: memcpy_h2d(1.758947)
F:  2879261----T:  2881866 	 St: c025e000 Sz: 4096 	 Sm: 0 	 T: memcpy_h2d(1.758947)
F:  2881866----T:  2884471 	 St: c025f000 Sz: 4096 	 Sm: 0 	 T: memcpy_h2d(1.758947)
F:  2884471----T:  2887076 	 St: c0260000 Sz: 4096 	 Sm: 0 	 T: memcpy_h2d(1.758947)
F:  2887076----T:  2889681 	 St: c0261000 Sz: 4096 	 Sm: 0 	 T: memcpy_h2d(1.758947)
F:  2889681----T:  2892286 	 St: c0262000 Sz: 4096 	 Sm: 0 	 T: memcpy_h2d(1.758947)
F:  2892286----T:  2894891 	 St: c0263000 Sz: 4096 	 Sm: 0 	 T: memcpy_h2d(1.758947)
F:  2894891----T:  2897496 	 St: c0264000 Sz: 4096 	 Sm: 0 	 T: memcpy_h2d(1.758947)
F:  2897496----T:  2900101 	 St: c0265000 Sz: 4096 	 Sm: 0 	 T: memcpy_h2d(1.758947)
F:  2900101----T:  2902706 	 St: c0266000 Sz: 4096 	 Sm: 0 	 T: memcpy_h2d(1.758947)
Tot_prefetch_time: 0(cycle), 0.000000(us)
Tot_kernel_exec_time: 2443177(cycle), 1649.680664(us)
Tot_kernel_exec_time_and_fault_time: 64689607(cycle), 43679.679688(us)
Tot_memcpy_h2d_time: 2433070(cycle), 1642.856201(us)
Tot_memcpy_d2h_time: 0(cycle), 0.000000(us)
Tot_memcpy_time: 2433070(cycle), 1642.856201(us)
Tot_devicesync_time: 16250(cycle), 10.972316(us)
Tot_writeback_time: 0(cycle), 0.000000(us)
Tot_rdma_time: 0(cycle), 0.000000(us)
Tot_memcpy_d2h_sync_wb_time: 16250(cycle), 10.972316(us)
GPGPU-Sim: *** exit detected ***
