

        *** GPGPU-Sim Simulator Version 3.2.2  [build gpgpu-sim_git-commit-3860d9b353b66e89e1a9ca14f6569fffcf247a15_modified_0] ***


GPGPU-Sim PTX: simulation mode 0 (can change with PTX_SIM_MODE_FUNC environment variable:
               1=functional simulation only, 0=detailed performance simulator)
GPGPU-Sim: Configuration options:

-network_mode                           1 # Interconnection network mode
-inter_config_file   config_fermi_islip.icnt # Interconnection network config file
-gpgpu_ptx_use_cuobjdump                    1 # Use cuobjdump to extract ptx and sass from binaries
-gpgpu_experimental_lib_support                    0 # Try to extract code from cuda libraries [Broken because of unknown cudaGetExportTable]
-gpgpu_ptx_convert_to_ptxplus                    0 # Convert SASS (native ISA) to ptxplus and run ptxplus
-gpgpu_ptx_force_max_capability                   20 # Force maximum compute capability
-gpgpu_ptx_inst_debug_to_file                    0 # Dump executed instructions' debug information to file
-gpgpu_ptx_inst_debug_file       inst_debug.txt # Executed instructions' debug output file
-gpgpu_ptx_inst_debug_thread_uid                    1 # Thread UID for executed instructions' debug output
-gpgpu_simd_model                       1 # 1 = post-dominator
-gpgpu_shader_core_pipeline              2048:32 # shader core pipeline config, i.e., {<nthread>:<warpsize>}
-gpgpu_tex_cache:l1  16:128:24,L:R:m:N:L,F:128:4,128:2 # per-shader L1 texture cache  (READ-ONLY) config  {<nsets>:<bsize>:<assoc>,<rep>:<wr>:<alloc>:<wr_alloc>,<mshr>:<N>:<merge>,<mq>:<rf>}
-gpgpu_const_cache:l1 128:64:2,L:R:f:N:L,A:2:64,4 # per-shader L1 constant memory cache  (READ-ONLY) config  {<nsets>:<bsize>:<assoc>,<rep>:<wr>:<alloc>:<wr_alloc>,<mshr>:<N>:<merge>,<mq>} 
-gpgpu_cache:il1     8:128:4,L:R:f:N:L,A:2:48,4 # shader L1 instruction cache config  {<nsets>:<bsize>:<assoc>,<rep>:<wr>:<alloc>:<wr_alloc>,<mshr>:<N>:<merge>,<mq>} 
-gpgpu_cache:dl1     64:128:6,L:L:m:N:H,A:128:8,8 # per-shader L1 data cache config  {<nsets>:<bsize>:<assoc>,<rep>:<wr>:<alloc>:<wr_alloc>,<mshr>:<N>:<merge>,<mq> | none}
-gpgpu_cache:dl1PrefL1                 none # per-shader L1 data cache config  {<nsets>:<bsize>:<assoc>,<rep>:<wr>:<alloc>:<wr_alloc>,<mshr>:<N>:<merge>,<mq> | none}
-gpgpu_cache:dl1PrefShared                 none # per-shader L1 data cache config  {<nsets>:<bsize>:<assoc>,<rep>:<wr>:<alloc>:<wr_alloc>,<mshr>:<N>:<merge>,<mq> | none}
-gmem_skip_L1D                          1 # global memory access skip L1D cache (implements -Xptxas -dlcm=cg, default=no skip)
-gpgpu_perfect_mem                      0 # enable perfect memory mode (no cache miss)
-n_regfile_gating_group                    4 # group of lanes that should be read/written together)
-gpgpu_clock_gated_reg_file                    0 # enable clock gated reg file for power calculations
-gpgpu_clock_gated_lanes                    0 # enable clock gated lanes for power calculations
-gpgpu_shader_registers                65536 # Number of registers per shader core. Limits number of concurrent CTAs. (default 8192)
-gpgpu_shader_cta                      32 # Maximum number of concurrent CTAs in shader (default 8)
-gpgpu_num_cta_barriers                   16 # Maximum number of named barriers per CTA (default 16)
-gpgpu_n_clusters                      28 # number of processing clusters
-gpgpu_n_cores_per_cluster                    1 # number of simd cores per cluster
-gpgpu_n_cluster_ejection_buffer_size                    8 # number of packets in ejection buffer
-gpgpu_n_ldst_response_buffer_size                    2 # number of response packets in ld/st unit ejection buffer
-gpgpu_shmem_size                   16384 # Size of shared memory per shader core (default 16kB)
-gpgpu_shmem_size                   98304 # Size of shared memory per shader core (default 16kB)
-gpgpu_shmem_size_PrefL1                16384 # Size of shared memory per shader core (default 16kB)
-gpgpu_shmem_size_PrefShared                16384 # Size of shared memory per shader core (default 16kB)
-gpgpu_shmem_num_banks                   32 # Number of banks in the shared memory in each shader core (default 16)
-gpgpu_shmem_limited_broadcast                    0 # Limit shared memory to do one broadcast per cycle (default on)
-gpgpu_shmem_warp_parts                    1 # Number of portions a warp is divided into for shared memory bank conflict check 
-gpgpu_warpdistro_shader                   -1 # Specify which shader core to collect the warp size distribution from
-gpgpu_warp_issue_shader                    0 # Specify which shader core to collect the warp issue distribution from
-gpgpu_local_mem_map                    1 # Mapping from local memory space address to simulated GPU physical address space (default = enabled)
-gpgpu_num_reg_banks                   32 # Number of register banks (default = 8)
-gpgpu_reg_bank_use_warp_id                    0 # Use warp ID in mapping registers to banks (default = off)
-gpgpu_operand_collector_num_units_sp                   20 # number of collector units (default = 4)
-gpgpu_operand_collector_num_units_sfu                    4 # number of collector units (default = 4)
-gpgpu_operand_collector_num_units_mem                    8 # number of collector units (default = 2)
-gpgpu_operand_collector_num_units_gen                    0 # number of collector units (default = 0)
-gpgpu_operand_collector_num_in_ports_sp                    4 # number of collector unit in ports (default = 1)
-gpgpu_operand_collector_num_in_ports_sfu                    1 # number of collector unit in ports (default = 1)
-gpgpu_operand_collector_num_in_ports_mem                    1 # number of collector unit in ports (default = 1)
-gpgpu_operand_collector_num_in_ports_gen                    0 # number of collector unit in ports (default = 0)
-gpgpu_operand_collector_num_out_ports_sp                    4 # number of collector unit in ports (default = 1)
-gpgpu_operand_collector_num_out_ports_sfu                    1 # number of collector unit in ports (default = 1)
-gpgpu_operand_collector_num_out_ports_mem                    1 # number of collector unit in ports (default = 1)
-gpgpu_operand_collector_num_out_ports_gen                    0 # number of collector unit in ports (default = 0)
-gpgpu_coalesce_arch                   13 # Coalescing arch (default = 13, anything else is off for now)
-gpgpu_num_sched_per_core                    2 # Number of warp schedulers per core
-gpgpu_max_insn_issue_per_warp                    2 # Max number of instructions that can be issued per warp in one cycle by scheduler
-gpgpu_simt_core_sim_order                    1 # Select the simulation order of cores in a cluster (0=Fix, 1=Round-Robin)
-gpgpu_pipeline_widths        4,1,1,4,1,1,6 # Pipeline widths ID_OC_SP,ID_OC_SFU,ID_OC_MEM,OC_EX_SP,OC_EX_SFU,OC_EX_MEM,EX_WB
-gpgpu_num_sp_units                     4 # Number of SP units (default=1)
-gpgpu_num_sfu_units                    1 # Number of SF units (default=1)
-gpgpu_num_mem_units                    1 # Number if ldst units (default=1) WARNING: not hooked up to anything
-gpgpu_scheduler                      gto # Scheduler configuration: < lrr | gto | two_level_active > If two_level_active:<num_active_warps>:<inner_prioritization>:<outer_prioritization>For complete list of prioritization values see shader.h enum scheduler_prioritization_typeDefault: gto
-gpgpu_concurrent_kernel_sm                    0 # Support concurrent kernels on a SM (default = disabled)
-tlb_size                            4096 # Number of tlb entries per SM.
-gpgpu_dram_scheduler                    1 # 0 = fifo, 1 = FR-FCFS (defaul)
-gpgpu_dram_partition_queues              8:8:8:8 # i2$:$2d:d2$:$2i
-l2_ideal                               0 # Use a ideal L2 cache that always hit
-gpgpu_cache:dl2     64:128:16,L:B:m:W:L,A:1024:1024,4:0,32 # unified banked L2 data cache config  {<nsets>:<bsize>:<assoc>,<rep>:<wr>:<alloc>:<wr_alloc>,<mshr>:<N>:<merge>,<mq>}
-gpgpu_cache:dl2_texture_only                    0 # L2 cache used for texture only
-gpgpu_n_mem                           11 # number of memory modules (e.g. memory controllers) in gpu
-gpgpu_n_sub_partition_per_mchannel                    2 # number of memory subpartition in each memory module
-gpgpu_n_mem_per_ctrlr                    1 # number of memory chips per memory controller
-gpgpu_memlatency_stat                   14 # track and display latency statistics 0x2 enables MC, 0x4 enables queue logs
-gpgpu_frfcfs_dram_sched_queue_size                   64 # 0 = unlimited (default); # entries per chip
-gpgpu_dram_return_queue_size                  116 # 0 = unlimited (default); # entries per chip
-gpgpu_dram_buswidth                    4 # default = 4 bytes (8 bytes per cycle at DDR)
-gpgpu_dram_burst_length                    8 # Burst length of each DRAM request (default = 4 data bus cycle)
-dram_data_command_freq_ratio                    4 # Frequency ratio between DRAM data bus and command bus (default = 2 times, i.e. DDR)
-gpgpu_dram_timing_opt nbk=16:CCD=2:RRD=6:RCD=12:RAS=28:RP=12:RC=40: CL=12:WL=4:CDLR=5:WR=12:nbkgrp=1:CCDL=0:RTPL=0 # DRAM timing parameters = {nbk:tCCD:tRRD:tRCD:tRAS:tRP:tRC:CL:WL:tCDLR:tWR:nbkgrp:tCCDL:tRTPL}
-rop_latency                          120 # ROP queue latency (default 85)
-dram_latency                         100 # DRAM latency (default 30)
-gpgpu_mem_addr_mapping dramid@8;00000000.00000000.00000000.00000000.0000RRRR.RRRRRRRR.RBBBCCCC.BCCSSSSS # mapping memory address to dram model {dramid@<start bit>;<memory address map>}
-gpgpu_mem_addr_test                    0 # run sweep test to check address mapping for aliased address
-gpgpu_mem_address_mask                    1 # 0 = old addressing mask, 1 = new addressing mask, 2 = new add. mask + flipped bank sel and chip sel bits
-gpuwattch_xml_file  gpuwattch_geforcegtx1080ti.xml # GPUWattch XML file
-power_simulation_enabled                    1 # Turn on power simulator (1=On, 0=Off)
-power_per_cycle_dump                    0 # Dump detailed power output each cycle
-power_trace_enabled                    0 # produce a file for the power trace (1=On, 0=Off)
-power_trace_zlevel                     6 # Compression level of the power trace output log (0=no comp, 9=highest)
-steady_power_levels_enabled                    0 # produce a file for the steady power levels (1=On, 0=Off)
-steady_state_definition                  8:4 # allowed deviation:number of samples
-gpgpu_max_cycle                        0 # terminates gpu simulation early (0 = no limit)
-gpgpu_max_insn                         0 # terminates gpu simulation early (0 = no limit)
-gpgpu_max_cta                          0 # terminates gpu simulation early (0 = no limit)
-gpgpu_runtime_stat                   500 # display runtime statistics such as dram utilization {<freq>:<flag>}
-liveness_message_freq                    1 # Minimum number of seconds between simulation liveness messages (0 = always print)
-gpgpu_flush_l1_cache                    0 # Flush L1 cache at the end of each kernel call
-gpgpu_flush_l2_cache                    0 # Flush L2 cache at the end of each kernel call
-gpgpu_deadlock_detect                    0 # Stop the simulation at deadlock (1=on (default), 0=off)
-gpgpu_ptx_instruction_classification                    0 # if enabled will classify ptx instruction types per kernel (Max 255 kernels now)
-gpgpu_ptx_sim_mode                     0 # Select between Performance (default) or Functional simulation (1)
-gpgpu_clock_domains 1481.0:2962.0:1481.0:2750.0 # Clock Domain Frequencies in MhZ {<Core Clock>:<ICNT Clock>:<L2 Clock>:<DRAM Clock>}
-gpgpu_max_concurrent_kernel                    8 # maximum kernels that can run concurrently on GPU
-gpgpu_cflog_interval                    0 # Interval between each snapshot in control flow logger
-visualizer_enabled                     0 # Turn on visualizer output (1=On, 0=Off)
-visualizer_outputfile                 NULL # Specifies the output log file for visualizer
-visualizer_zlevel                      6 # Compression level of the visualizer output log (0=no comp, 9=highest)
-trace_enabled                          0 # Turn on traces
-trace_components                    none # comma seperated list of traces to enable. Complete list found in trace_streams.tup. Default none
-trace_sampling_core                    0 # The core which is printed using CORE_DPRINTF. Default 0
-trace_sampling_memory_partition                   -1 # The memory partition which is printed using MEMPART_DPRINTF. Default -1 (i.e. all)
-gddr_size                            1GB # Size of GDDR in MB/GB.(GLOBAL_HEAP_START, GLOBAL_HEAP_START + gddr_size) would be used for unmanged memory, (GLOBAL_HEAP_START + gddr_size, GLOBAL_HEAP_START + gddr_size*2) would be used for managed memory. 
-page_table_walk_latency                  100 # Average page table walk latency (in core cycle).
-eviction_policy                        0 # Select page eviction policy
-reserve_accessed_page_percent                    0 # Percentage of accessed pages reserved from eviction in hope that they will be accessed in next iteration.
-percentage_of_free_page_buffer                    0 # Percentage of free page buffer to trigger the page eviction.
-page_size                            4KB # GDDR page size, only 4KB/2MB avaliable.
-pcie_bandwith                   16.0GB/s # PCI-e bandwith per direction, in GB/s.
-enable_nvlink                          0 # Enable nvlink 2.0, 150.0GB/s
-enable_rdma                            0 # Enable remote direct memory access
-migrate_threshold                     10 # Access counter threshold for migrating the page from cpu to gpu
-sim_prof_enable                        1 # Enable gpgpu-sim profiler
-hardware_prefetch                      0 # Select gpgpu-sim hardware prefetcher
-hwprefetch_oversub                     0 # Select gpgpu-sim hardware prefetcher under over-subscription
-page_fault_latency                 66645 # Average fault latency (in core cycle).
-enable_accurate_simulation                    0 # Enable page fault functional simulation.
-enable_ptx_file_line_stats                    1 # Turn on PTX source line statistic profiling. (1 = On)
-ptx_line_stats_filename gpgpu_inst_stats.txt # Output file for PTX source line statistics.
-gpgpu_kernel_launch_latency               222150 # Kernel launch latency in cycles. Default: 0
-gpgpu_cdp_enabled                      0 # Turn on CDP
-save_embedded_ptx                      0 # saves ptx files embedded in binary as <n>.ptx
-keep                                   0 # keep intermediate files created by GPGPU-Sim when interfacing with external programs
-gpgpu_ptx_save_converted_ptxplus                    0 # Saved converted ptxplus to a file
-ptx_opcode_latency_int         4,13,4,5,145 # Opcode latencies for integers <ADD,MAX,MUL,MAD,DIV>Default 1,1,19,25,145
-ptx_opcode_latency_fp          4,13,4,5,39 # Opcode latencies for single precision floating points <ADD,MAX,MUL,MAD,DIV>Default 1,1,1,1,30
-ptx_opcode_latency_dp         8,19,8,8,330 # Opcode latencies for double precision floating points <ADD,MAX,MUL,MAD,DIV>Default 8,8,8,8,335
-ptx_opcode_initiation_int            1,2,2,2,8 # Opcode initiation intervals for integers <ADD,MAX,MUL,MAD,DIV>Default 1,1,4,4,32
-ptx_opcode_initiation_fp            1,2,1,1,4 # Opcode initiation intervals for single precision floating points <ADD,MAX,MUL,MAD,DIV>Default 1,1,1,1,5
-ptx_opcode_initiation_dp          1,2,1,1,130 # Opcode initiation intervals for double precision floating points <ADD,MAX,MUL,MAD,DIV>Default 8,8,8,8,130
-cdp_latency         7200,8000,100,12000,1600 # CDP API latency <cudaStreamCreateWithFlags, cudaGetParameterBufferV2_init_perWarp, cudaGetParameterBufferV2_perKernel, cudaLaunchDeviceV2_init_perWarp, cudaLaunchDevicV2_perKernel>Default 7200,8000,100,12000,1600
DRAM Timing Options:
nbk                                    16 # number of banks
CCD                                     2 # column to column delay
RRD                                     6 # minimal delay between activation of rows in different banks
RCD                                    12 # row to column delay
RAS                                    28 # time needed to activate row
RP                                     12 # time needed to precharge (deactivate) row
RC                                     40 # row cycle time
CDLR                                    5 # switching from write to read (changes tWTR)
WR                                     12 # last data-in to row precharge
CL                                     12 # CAS latency
WL                                      4 # Write latency
nbkgrp                                  1 # number of bank groups
CCDL                                    0 # column to column delay between accesses to different bank groups
RTPL                                    0 # read to precharge delay between accesses to different bank groups
Total number of memory sub partition = 22
addr_dec_mask[CHIP]  = 0000000000000000 	high:64 low:0
addr_dec_mask[BK]    = 0000000000007080 	high:15 low:7
addr_dec_mask[ROW]   = 000000000fff8000 	high:28 low:15
addr_dec_mask[COL]   = 0000000000000f7f 	high:12 low:0
addr_dec_mask[BURST] = 000000000000001f 	high:5 low:0
sub_partition_id_mask = 0000000000000080
GPGPU-Sim uArch: clock freqs: 1481000000.000000:2962000000.000000:1481000000.000000:2750000000.000000
GPGPU-Sim uArch: clock periods: 0.00000000067521944632:0.00000000033760972316:0.00000000067521944632:0.00000000036363636364
*** Initializing Memory Statistics ***
GPGPU-Sim uArch: interconnect node map (shaderID+MemID to icntID)
GPGPU-Sim uArch: Memory nodes ID start from index: 28
GPGPU-Sim uArch:    0   1   2   3   4   5   6
GPGPU-Sim uArch:    7   8   9  10  11  12  13
GPGPU-Sim uArch:   14  15  16  17  18  19  20
GPGPU-Sim uArch:   21  22  23  24  25  26  27
GPGPU-Sim uArch:   28  29  30  31  32  33  34
GPGPU-Sim uArch:   35  36  37  38  39  40  41
GPGPU-Sim uArch:   42  43  44  45  46  47  48
GPGPU-Sim uArch:   49
GPGPU-Sim uArch: interconnect node reverse map (icntID to shaderID+MemID)
GPGPU-Sim uArch: Memory nodes start from ID: 28
GPGPU-Sim uArch:    0   1   2   3   4   5   6
GPGPU-Sim uArch:    7   8   9  10  11  12  13
GPGPU-Sim uArch:   14  15  16  17  18  19  20
GPGPU-Sim uArch:   21  22  23  24  25  26  27
GPGPU-Sim uArch:   28  29  30  31  32  33  34
GPGPU-Sim uArch:   35  36  37  38  39  40  41
GPGPU-Sim uArch:   42  43  44  45  46  47  48
GPGPU-Sim uArch:   49
8d0b755a04cb031e830e7130e2d0f524  /home/gpuser/Desktop/gpgpu-sim_UVMSmart/benchmarks/Managed/bfs/bfs
GPGPU-Sim uArch: performance model initialization complete.
GPGPU-Sim PTX: __cudaRegisterFatBinary, fat_cubin_handle = 1, filename=default
self exe links to: /home/gpuser/Desktop/gpgpu-sim_UVMSmart/benchmarks/Managed/bfs/bfs
Running md5sum using "md5sum /home/gpuser/Desktop/gpgpu-sim_UVMSmart/benchmarks/Managed/bfs/bfs "
Parsing file _cuobjdump_complete_output_0Rk57k
######### cuobjdump parser ########
## Adding new section ELF
Adding arch: sm_20
Adding identifier: default
## Adding new section ELF
Adding arch: sm_20
Adding identifier: default
## Adding new section PTX
Adding ptx filename: _cuobjdump_1.ptx
Adding arch: sm_20
Adding identifier: default
Done parsing!!!
GPGPU-Sim PTX: __cudaRegisterFunction _Z7Kernel2PbS_S_S_i : hostFun 0x0x401649, fat_cubin_handle = 1
GPGPU-Sim PTX: instruction assembly for function '_Z6KernelP4NodePiPbS2_S2_S1_i'...   done.
GPGPU-Sim PTX: finding reconvergence points for '_Z6KernelP4NodePiPbS2_S2_S1_i'...
GPGPU-Sim PTX: Finding dominators for '_Z6KernelP4NodePiPbS2_S2_S1_i'...
GPGPU-Sim PTX: Finding immediate dominators for '_Z6KernelP4NodePiPbS2_S2_S1_i'...
GPGPU-Sim PTX: Finding postdominators for '_Z6KernelP4NodePiPbS2_S2_S1_i'...
GPGPU-Sim PTX: Finding immediate postdominators for '_Z6KernelP4NodePiPbS2_S2_S1_i'...
GPGPU-Sim PTX: pre-decoding instructions for '_Z6KernelP4NodePiPbS2_S2_S1_i'...
GPGPU-Sim PTX: reconvergence points for _Z6KernelP4NodePiPbS2_S2_S1_i...
GPGPU-Sim PTX:  1 (potential) branch divergence @  PC=0x060 (_1.ptx:42) @%p1 bra BB0_7;
GPGPU-Sim PTX:    immediate post dominator      @  PC=0x1e8 (_1.ptx:101) ret;
GPGPU-Sim PTX:  2 (potential) branch divergence @  PC=0x090 (_1.ptx:49) @%p2 bra BB0_7;
GPGPU-Sim PTX:    immediate post dominator      @  PC=0x1e8 (_1.ptx:101) ret;
GPGPU-Sim PTX:  3 (potential) branch divergence @  PC=0x0d8 (_1.ptx:59) @%p3 bra BB0_7;
GPGPU-Sim PTX:    immediate post dominator      @  PC=0x1e8 (_1.ptx:101) ret;
GPGPU-Sim PTX:  4 (potential) branch divergence @  PC=0x160 (_1.ptx:79) @%p4 bra BB0_6;
GPGPU-Sim PTX:    immediate post dominator      @  PC=0x1b8 (_1.ptx:93) mov.u32 %r24, %r25;
GPGPU-Sim PTX:  5 (potential) branch divergence @  PC=0x1e0 (_1.ptx:98) @%p5 bra BB0_4;
GPGPU-Sim PTX:    immediate post dominator      @  PC=0x1e8 (_1.ptx:101) ret;
GPGPU-Sim PTX: ... end of reconvergence points for _Z6KernelP4NodePiPbS2_S2_S1_i
GPGPU-Sim PTX: ... done pre-decoding instructions for '_Z6KernelP4NodePiPbS2_S2_S1_i'.
GPGPU-Sim PTX: instruction assembly for function '_Z7Kernel2PbS_S_S_i'...   done.
GPGPU-Sim PTX: finding reconvergence points for '_Z7Kernel2PbS_S_S_i'...
GPGPU-Sim PTX: Finding dominators for '_Z7Kernel2PbS_S_S_i'...
GPGPU-Sim PTX: Finding immediate dominators for '_Z7Kernel2PbS_S_S_i'...
GPGPU-Sim PTX: Finding postdominators for '_Z7Kernel2PbS_S_S_i'...
GPGPU-Sim PTX: Finding immediate postdominators for '_Z7Kernel2PbS_S_S_i'...
GPGPU-Sim PTX: pre-decoding instructions for '_Z7Kernel2PbS_S_S_i'...
GPGPU-Sim PTX: reconvergence points for _Z7Kernel2PbS_S_S_i...
GPGPU-Sim PTX:  1 (potential) branch divergence @  PC=0x240 (_1.ptx:129) @%p1 bra BB1_3;
GPGPU-Sim PTX:    immediate post dominator      @  PC=0x2d0 (_1.ptx:151) ret;
GPGPU-Sim PTX:  2 (potential) branch divergence @  PC=0x270 (_1.ptx:136) @%p2 bra BB1_3;
GPGPU-Sim PTX:    immediate post dominator      @  PC=0x2d0 (_1.ptx:151) ret;
GPGPU-Sim PTX: ... end of reconvergence points for _Z7Kernel2PbS_S_S_i
GPGPU-Sim PTX: ... done pre-decoding instructions for '_Z7Kernel2PbS_S_S_i'.
GPGPU-Sim PTX: finished parsing EMBEDDED .ptx file _1.ptx
Adding _cuobjdump_1.ptx with cubin handle 1
GPGPU-Sim PTX: extracting embedded .ptx to temporary file "_ptx_ovwQxa"
Running: cat _ptx_ovwQxa | sed 's/.version 1.5/.version 1.4/' | sed 's/, texmode_independent//' | sed 's/\(\.extern \.const\[1\] .b8 \w\+\)\[\]/\1\[1\]/' | sed 's/const\[.\]/const\[0\]/g' > _ptx2_XLBCXZ
GPGPU-Sim PTX: generating ptxinfo using "$CUDA_INSTALL_PATH/bin/ptxas --gpu-name=sm_20 -v _ptx2_XLBCXZ --output-file  /dev/null 2> _ptx_ovwQxainfo"
GPGPU-Sim PTX: Kernel '_Z7Kernel2PbS_S_S_i' : regs=12, lmem=0, smem=0, cmem=68
GPGPU-Sim PTX: Kernel '_Z6KernelP4NodePiPbS2_S2_S1_i' : regs=15, lmem=0, smem=0, cmem=84
GPGPU-Sim PTX: removing ptxinfo using "rm -f _ptx_ovwQxa _ptx2_XLBCXZ _ptx_ovwQxainfo"
GPGPU-Sim PTX: loading globals with explicit initializers... 
GPGPU-Sim PTX: finished loading globals (0 bytes total).
GPGPU-Sim PTX: loading constants with explicit initializers...  done.
GPGPU-Sim PTX: __cudaRegisterFunction _Z6KernelP4NodePiPbS2_S2_S1_i : hostFun 0x0x401519, fat_cubin_handle = 1
Reading File
Read File
Copied Everything to GPU memory
Start traversing the tree

GPGPU-Sim PTX: cudaLaunch for 0x0x401519 (mode=performance simulation) on stream 0
GPGPU-Sim PTX: pushing kernel '_Z6KernelP4NodePiPbS2_S2_S1_i' to stream 0, gridDim= (128,1,1) blockDim = (512,1,1) 
GPGPU-Sim uArch: Shader 1 bind to kernel 1 '_Z6KernelP4NodePiPbS2_S2_S1_i'
GPGPU-Sim uArch: CTA/core = 4, limited by: threads
GPGPU-Sim uArch: Shader 2 bind to kernel 1 '_Z6KernelP4NodePiPbS2_S2_S1_i'
GPGPU-Sim uArch: Shader 3 bind to kernel 1 '_Z6KernelP4NodePiPbS2_S2_S1_i'
GPGPU-Sim uArch: Shader 4 bind to kernel 1 '_Z6KernelP4NodePiPbS2_S2_S1_i'
GPGPU-Sim uArch: Shader 5 bind to kernel 1 '_Z6KernelP4NodePiPbS2_S2_S1_i'
GPGPU-Sim uArch: Shader 6 bind to kernel 1 '_Z6KernelP4NodePiPbS2_S2_S1_i'
GPGPU-Sim uArch: Shader 7 bind to kernel 1 '_Z6KernelP4NodePiPbS2_S2_S1_i'
GPGPU-Sim uArch: Shader 8 bind to kernel 1 '_Z6KernelP4NodePiPbS2_S2_S1_i'
GPGPU-Sim uArch: Shader 9 bind to kernel 1 '_Z6KernelP4NodePiPbS2_S2_S1_i'
GPGPU-Sim uArch: Shader 10 bind to kernel 1 '_Z6KernelP4NodePiPbS2_S2_S1_i'
GPGPU-Sim uArch: Shader 11 bind to kernel 1 '_Z6KernelP4NodePiPbS2_S2_S1_i'
GPGPU-Sim uArch: Shader 12 bind to kernel 1 '_Z6KernelP4NodePiPbS2_S2_S1_i'
GPGPU-Sim uArch: Shader 13 bind to kernel 1 '_Z6KernelP4NodePiPbS2_S2_S1_i'
GPGPU-Sim uArch: Shader 14 bind to kernel 1 '_Z6KernelP4NodePiPbS2_S2_S1_i'
GPGPU-Sim uArch: Shader 15 bind to kernel 1 '_Z6KernelP4NodePiPbS2_S2_S1_i'
GPGPU-Sim uArch: Shader 16 bind to kernel 1 '_Z6KernelP4NodePiPbS2_S2_S1_i'
GPGPU-Sim uArch: Shader 17 bind to kernel 1 '_Z6KernelP4NodePiPbS2_S2_S1_i'
GPGPU-Sim uArch: Shader 18 bind to kernel 1 '_Z6KernelP4NodePiPbS2_S2_S1_i'
GPGPU-Sim uArch: Shader 19 bind to kernel 1 '_Z6KernelP4NodePiPbS2_S2_S1_i'
GPGPU-Sim uArch: Shader 20 bind to kernel 1 '_Z6KernelP4NodePiPbS2_S2_S1_i'
GPGPU-Sim uArch: Shader 21 bind to kernel 1 '_Z6KernelP4NodePiPbS2_S2_S1_i'
GPGPU-Sim uArch: Shader 22 bind to kernel 1 '_Z6KernelP4NodePiPbS2_S2_S1_i'
GPGPU-Sim uArch: Shader 23 bind to kernel 1 '_Z6KernelP4NodePiPbS2_S2_S1_i'
GPGPU-Sim uArch: Shader 24 bind to kernel 1 '_Z6KernelP4NodePiPbS2_S2_S1_i'
GPGPU-Sim uArch: Shader 25 bind to kernel 1 '_Z6KernelP4NodePiPbS2_S2_S1_i'
GPGPU-Sim uArch: Shader 26 bind to kernel 1 '_Z6KernelP4NodePiPbS2_S2_S1_i'
GPGPU-Sim uArch: Shader 27 bind to kernel 1 '_Z6KernelP4NodePiPbS2_S2_S1_i'
GPGPU-Sim uArch: Shader 0 bind to kernel 1 '_Z6KernelP4NodePiPbS2_S2_S1_i'
Destroy streams for kernel 1: size 0
kernel_name = _Z6KernelP4NodePiPbS2_S2_S1_i 
kernel_launch_uid = 1 
gpu_sim_cycle = 106490
gpu_sim_insn = 1245376
gpu_ipc =      11.6948
gpu_tot_sim_cycle = 331176
gpu_tot_sim_insn = 1245376
gpu_tot_ipc =       3.7605
gpu_tot_issued_cta = 128
max_total_param_size = 0
gpu_stall_dramfull = 0
gpu_stall_icnt2sh    = 329
partiton_reqs_in_parallel = 2342780
partiton_reqs_in_parallel_total    = 0
partiton_level_parallism =      22.0000
partiton_level_parallism_total  =       7.0741
partiton_reqs_in_parallel_util = 2342780
partiton_reqs_in_parallel_util_total    = 0
gpu_sim_cycle_parition_util = 106490
gpu_tot_sim_cycle_parition_util    = 0
partiton_level_parallism_util =      22.0000
partiton_level_parallism_util_total  =      22.0000
partiton_replys_in_parallel = 2220
partiton_replys_in_parallel_total    = 0
L2_BW  =       1.9760 GB/Sec
L2_BW_total  =       0.6354 GB/Sec
gpu_total_sim_rate=16386

========= Core cache stats =========
L1I_cache:
	L1I_total_cache_accesses = 22632
	L1I_total_cache_misses = 2715
	L1I_total_cache_miss_rate = 0.1200
	L1I_total_cache_pending_hits = 0
	L1I_total_cache_reservation_fails = 6846
L1D_cache:
	L1D_cache_core[0]: Access = 0, Miss = 0, Miss_rate = -nan, Pending_hits = 0, Reservation_fails = 0
	L1D_cache_core[1]: Access = 0, Miss = 0, Miss_rate = -nan, Pending_hits = 0, Reservation_fails = 0
	L1D_cache_core[2]: Access = 0, Miss = 0, Miss_rate = -nan, Pending_hits = 0, Reservation_fails = 0
	L1D_cache_core[3]: Access = 0, Miss = 0, Miss_rate = -nan, Pending_hits = 0, Reservation_fails = 0
	L1D_cache_core[4]: Access = 0, Miss = 0, Miss_rate = -nan, Pending_hits = 0, Reservation_fails = 0
	L1D_cache_core[5]: Access = 0, Miss = 0, Miss_rate = -nan, Pending_hits = 0, Reservation_fails = 0
	L1D_cache_core[6]: Access = 0, Miss = 0, Miss_rate = -nan, Pending_hits = 0, Reservation_fails = 0
	L1D_cache_core[7]: Access = 0, Miss = 0, Miss_rate = -nan, Pending_hits = 0, Reservation_fails = 0
	L1D_cache_core[8]: Access = 0, Miss = 0, Miss_rate = -nan, Pending_hits = 0, Reservation_fails = 0
	L1D_cache_core[9]: Access = 0, Miss = 0, Miss_rate = -nan, Pending_hits = 0, Reservation_fails = 0
	L1D_cache_core[10]: Access = 0, Miss = 0, Miss_rate = -nan, Pending_hits = 0, Reservation_fails = 0
	L1D_cache_core[11]: Access = 0, Miss = 0, Miss_rate = -nan, Pending_hits = 0, Reservation_fails = 0
	L1D_cache_core[12]: Access = 0, Miss = 0, Miss_rate = -nan, Pending_hits = 0, Reservation_fails = 0
	L1D_cache_core[13]: Access = 0, Miss = 0, Miss_rate = -nan, Pending_hits = 0, Reservation_fails = 0
	L1D_cache_core[14]: Access = 0, Miss = 0, Miss_rate = -nan, Pending_hits = 0, Reservation_fails = 0
	L1D_cache_core[15]: Access = 0, Miss = 0, Miss_rate = -nan, Pending_hits = 0, Reservation_fails = 0
	L1D_cache_core[16]: Access = 0, Miss = 0, Miss_rate = -nan, Pending_hits = 0, Reservation_fails = 0
	L1D_cache_core[17]: Access = 0, Miss = 0, Miss_rate = -nan, Pending_hits = 0, Reservation_fails = 0
	L1D_cache_core[18]: Access = 0, Miss = 0, Miss_rate = -nan, Pending_hits = 0, Reservation_fails = 0
	L1D_cache_core[19]: Access = 0, Miss = 0, Miss_rate = -nan, Pending_hits = 0, Reservation_fails = 0
	L1D_cache_core[20]: Access = 0, Miss = 0, Miss_rate = -nan, Pending_hits = 0, Reservation_fails = 0
	L1D_cache_core[21]: Access = 0, Miss = 0, Miss_rate = -nan, Pending_hits = 0, Reservation_fails = 0
	L1D_cache_core[22]: Access = 0, Miss = 0, Miss_rate = -nan, Pending_hits = 0, Reservation_fails = 0
	L1D_cache_core[23]: Access = 0, Miss = 0, Miss_rate = -nan, Pending_hits = 0, Reservation_fails = 0
	L1D_cache_core[24]: Access = 0, Miss = 0, Miss_rate = -nan, Pending_hits = 0, Reservation_fails = 0
	L1D_cache_core[25]: Access = 0, Miss = 0, Miss_rate = -nan, Pending_hits = 0, Reservation_fails = 0
	L1D_cache_core[26]: Access = 0, Miss = 0, Miss_rate = -nan, Pending_hits = 0, Reservation_fails = 0
	L1D_cache_core[27]: Access = 0, Miss = 0, Miss_rate = -nan, Pending_hits = 0, Reservation_fails = 0
	L1D_total_cache_accesses = 0
	L1D_total_cache_misses = 0
	L1D_total_cache_pending_hits = 0
	L1D_total_cache_reservation_fails = 0
	L1D_cache_data_port_util = 0.000
	L1D_cache_fill_port_util = 0.000
L1C_cache:
	L1C_total_cache_accesses = 14336
	L1C_total_cache_misses = 1792
	L1C_total_cache_miss_rate = 0.1250
	L1C_total_cache_pending_hits = 0
	L1C_total_cache_reservation_fails = 4886
L1T_cache:
	L1T_total_cache_accesses = 0
	L1T_total_cache_misses = 0
	L1T_total_cache_pending_hits = 0
	L1T_total_cache_reservation_fails = 0

Total_core_cache_stats:
	Total_core_cache_stats_breakdown[GLOBAL_ACC_R][HIT] = 0
	Total_core_cache_stats_breakdown[GLOBAL_ACC_R][HIT_RESERVED] = 0
	Total_core_cache_stats_breakdown[GLOBAL_ACC_R][MISS] = 0
	Total_core_cache_stats_breakdown[GLOBAL_ACC_R][RESERVATION_FAIL] = 0
	Total_core_cache_stats_breakdown[LOCAL_ACC_R][HIT] = 0
	Total_core_cache_stats_breakdown[LOCAL_ACC_R][HIT_RESERVED] = 0
	Total_core_cache_stats_breakdown[LOCAL_ACC_R][MISS] = 0
	Total_core_cache_stats_breakdown[LOCAL_ACC_R][RESERVATION_FAIL] = 0
	Total_core_cache_stats_breakdown[CONST_ACC_R][HIT] = 12544
	Total_core_cache_stats_breakdown[CONST_ACC_R][HIT_RESERVED] = 0
	Total_core_cache_stats_breakdown[CONST_ACC_R][MISS] = 1792
	Total_core_cache_stats_breakdown[CONST_ACC_R][RESERVATION_FAIL] = 4886
	Total_core_cache_stats_breakdown[TEXTURE_ACC_R][HIT] = 0
	Total_core_cache_stats_breakdown[TEXTURE_ACC_R][HIT_RESERVED] = 0
	Total_core_cache_stats_breakdown[TEXTURE_ACC_R][MISS] = 0
	Total_core_cache_stats_breakdown[TEXTURE_ACC_R][RESERVATION_FAIL] = 0
	Total_core_cache_stats_breakdown[GLOBAL_ACC_W][HIT] = 0
	Total_core_cache_stats_breakdown[GLOBAL_ACC_W][HIT_RESERVED] = 0
	Total_core_cache_stats_breakdown[GLOBAL_ACC_W][MISS] = 0
	Total_core_cache_stats_breakdown[GLOBAL_ACC_W][RESERVATION_FAIL] = 0
	Total_core_cache_stats_breakdown[LOCAL_ACC_W][HIT] = 0
	Total_core_cache_stats_breakdown[LOCAL_ACC_W][HIT_RESERVED] = 0
	Total_core_cache_stats_breakdown[LOCAL_ACC_W][MISS] = 0
	Total_core_cache_stats_breakdown[LOCAL_ACC_W][RESERVATION_FAIL] = 0
	Total_core_cache_stats_breakdown[L1_WRBK_ACC][HIT] = 0
	Total_core_cache_stats_breakdown[L1_WRBK_ACC][HIT_RESERVED] = 0
	Total_core_cache_stats_breakdown[L1_WRBK_ACC][MISS] = 0
	Total_core_cache_stats_breakdown[L1_WRBK_ACC][RESERVATION_FAIL] = 0
	Total_core_cache_stats_breakdown[L2_WRBK_ACC][HIT] = 0
	Total_core_cache_stats_breakdown[L2_WRBK_ACC][HIT_RESERVED] = 0
	Total_core_cache_stats_breakdown[L2_WRBK_ACC][MISS] = 0
	Total_core_cache_stats_breakdown[L2_WRBK_ACC][RESERVATION_FAIL] = 0
	Total_core_cache_stats_breakdown[INST_ACC_R][HIT] = 19917
	Total_core_cache_stats_breakdown[INST_ACC_R][HIT_RESERVED] = 0
	Total_core_cache_stats_breakdown[INST_ACC_R][MISS] = 2715
	Total_core_cache_stats_breakdown[INST_ACC_R][RESERVATION_FAIL] = 6846
	Total_core_cache_stats_breakdown[L1_WR_ALLOC_R][HIT] = 0
	Total_core_cache_stats_breakdown[L1_WR_ALLOC_R][HIT_RESERVED] = 0
	Total_core_cache_stats_breakdown[L1_WR_ALLOC_R][MISS] = 0
	Total_core_cache_stats_breakdown[L1_WR_ALLOC_R][RESERVATION_FAIL] = 0
	Total_core_cache_stats_breakdown[L2_WR_ALLOC_R][HIT] = 0
	Total_core_cache_stats_breakdown[L2_WR_ALLOC_R][HIT_RESERVED] = 0
	Total_core_cache_stats_breakdown[L2_WR_ALLOC_R][MISS] = 0
	Total_core_cache_stats_breakdown[L2_WR_ALLOC_R][RESERVATION_FAIL] = 0
	Total_core_cache_stats_breakdown[CONST_ACC_R][TOTAL_ACCESS] = 14336
	Total_core_cache_stats_breakdown[INST_ACC_R][TOTAL_ACCESS] = 22632
Shader 0 warp_id issue ditsribution:
warp_id:
0, 1, 2, 3, 4, 5, 6, 7, 8, 9, 10, 11, 12, 13, 14, 15, 16, 17, 18, 19, 20, 21, 22, 23, 24, 25, 26, 27, 28, 29, 30, 31, 32, 33, 34, 35, 36, 37, 38, 39, 40, 41, 42, 43, 44, 45, 46, 47, 48, 49, 50, 51, 52, 53, 54, 55, 56, 57, 58, 59, 60, 61, 62, 63, 
distro:
46, 46, 45, 46, 45, 46, 45, 46, 46, 46, 46, 46, 46, 46, 46, 46, 23, 23, 23, 23, 23, 23, 23, 23, 23, 23, 23, 23, 23, 23, 23, 23, 23, 23, 23, 23, 23, 23, 23, 23, 23, 23, 23, 23, 23, 23, 23, 23, 23, 23, 23, 23, 23, 23, 23, 23, 23, 23, 23, 23, 23, 23, 23, 23, 
gpgpu_n_tot_thrd_icount = 1317216
gpgpu_n_tot_w_icount = 41163
gpgpu_n_stall_shd_mem = 4886
gpgpu_n_mem_read_local = 0
gpgpu_n_mem_write_local = 0
gpgpu_n_mem_read_global = 2090
gpgpu_n_mem_write_global = 17
gpgpu_n_mem_texture = 0
gpgpu_n_mem_const = 28
gpgpu_n_load_insn  = 65578
gpgpu_n_store_insn = 17
gpgpu_n_shmem_insn = 0
gpgpu_n_tex_insn = 0
gpgpu_n_const_mem_insn = 0
gpgpu_n_param_mem_insn = 458752
gpgpu_n_shmem_bkconflict = 0
gpgpu_n_cache_bkconflict = 0
gpgpu_n_intrawarp_mshr_merge = 0
gpgpu_n_cmem_portconflict = 4886
gpgpu_stall_shd_mem[c_mem][bk_conf] = 4886
gpgpu_stall_shd_mem[c_mem][mshr_rc] = 0
gpgpu_stall_shd_mem[c_mem][icnt_rc] = 0
gpgpu_stall_shd_mem[c_mem][data_port_stall] = 0
gpgpu_stall_shd_mem[t_mem][mshr_rc] = 0
gpgpu_stall_shd_mem[t_mem][icnt_rc] = 0
gpgpu_stall_shd_mem[t_mem][data_port_stall] = 0
gpgpu_stall_shd_mem[s_mem][bk_conf] = 0
gpgpu_stall_shd_mem[gl_mem][bk_conf] = 0
gpgpu_stall_shd_mem[gl_mem][coal_stall] = 0
gpgpu_stall_shd_mem[gl_mem][data_port_stall] = 0
gpgpu_stall_shd_mem[g_mem_ld][mshr_rc] = 0
gpgpu_stall_shd_mem[g_mem_ld][icnt_rc] = 0
gpgpu_stall_shd_mem[g_mem_ld][wb_icnt_rc] = 0
gpgpu_stall_shd_mem[g_mem_ld][wb_rsrv_fail] = 0
gpgpu_stall_shd_mem[g_mem_st][mshr_rc] = 0
gpgpu_stall_shd_mem[g_mem_st][icnt_rc] = 0
gpgpu_stall_shd_mem[g_mem_st][wb_icnt_rc] = 0
gpgpu_stall_shd_mem[g_mem_st][wb_rsrv_fail] = 0
gpgpu_stall_shd_mem[l_mem_ld][mshr_rc] = 0
gpgpu_stall_shd_mem[l_mem_ld][icnt_rc] = 0
gpgpu_stall_shd_mem[l_mem_ld][wb_icnt_rc] = 0
gpgpu_stall_shd_mem[l_mem_ld][wb_rsrv_fail] = 0
gpgpu_stall_shd_mem[l_mem_st][mshr_rc] = 0
gpgpu_stall_shd_mem[l_mem_st][icnt_rc] = 0
gpgpu_stall_shd_mem[l_mem_ld][wb_icnt_rc] = 0
gpgpu_stall_shd_mem[l_mem_ld][wb_rsrv_fail] = 0
gpu_reg_bank_conflict_stalls = 0
Warp Occupancy Distribution:
Stall:16063	W0_Idle:93058	W0_Scoreboard:2181798	W1:203	W2:0	W3:0	W4:0	W5:0	W6:0	W7:0	W8:0	W9:0	W10:0	W11:0	W12:0	W13:0	W14:0	W15:0	W16:0	W17:0	W18:0	W19:0	W20:0	W21:0	W22:0	W23:0	W24:0	W25:0	W26:0	W27:0	W28:0	W29:0	W30:0	W31:0	W32:40960
traffic_breakdown_coretomem[CONST_ACC_R] = 224 {8:28,}
traffic_breakdown_coretomem[GLOBAL_ACC_R] = 16720 {8:2090,}
traffic_breakdown_coretomem[GLOBAL_ACC_W] = 680 {40:17,}
traffic_breakdown_coretomem[INST_ACC_R] = 680 {8:85,}
traffic_breakdown_memtocore[CONST_ACC_R] = 2016 {72:28,}
traffic_breakdown_memtocore[GLOBAL_ACC_R] = 83600 {40:2090,}
traffic_breakdown_memtocore[GLOBAL_ACC_W] = 136 {8:17,}
traffic_breakdown_memtocore[INST_ACC_R] = 11560 {136:85,}
maxmrqlatency = 13 
maxdqlatency = 0 
maxmflatency = 38944 
averagemflatency = 21155 
max_icnt2mem_latency = 38703 
max_icnt2sh_latency = 331175 
mrq_lat_table:456 	15 	75 	14 	0 	0 	0 	0 	0 	0 	0 	0 	0 	0 	0 	0 	0 	0 	0 	0 	0 	0 	0 	0 	0 	0 	0 	0 	0 	0 	0 	0 	
dq_lat_table:0 	0 	0 	0 	0 	0 	0 	0 	0 	0 	0 	0 	0 	0 	0 	0 	0 	0 	0 	0 	0 	0 	0 	0 	0 	0 	0 	0 	0 	0 	0 	0 	
mf_lat_table:0 	0 	0 	0 	0 	0 	0 	63 	0 	0 	0 	137 	269 	385 	768 	513 	0 	0 	0 	0 	0 	0 	0 	0 	0 	0 	0 	0 	0 	0 	0 	0 	
icnt2mem_lat_table:0 	0 	120 	12 	16 	0 	0 	0 	0 	0 	0 	137 	269 	385 	768 	513 	0 	0 	0 	0 	0 	0 	0 	0 	
icnt2sh_lat_table:0 	0 	932 	1058 	128 	0 	0 	0 	0 	0 	0 	0 	0 	0 	0 	0 	0 	1 	16 	0 	0 	0 	0 	0 	
mf_lat_pw_table:0 	0 	0 	0 	0 	0 	0 	10 	0 	1 	0 	12 	12 	3 	6 	5 	0 	0 	0 	0 	0 	0 	0 	0 	0 	0 	0 	0 	0 	0 	0 	0 	
maximum concurrent accesses to same row:
dram[0]:         0         0         0         0         0         0         0         0         0         0         0         0         0         0         0         0 
dram[1]:         0         0         0         0        15         0         0         0         0         0         1         0         0         0         0         0 
dram[2]:         0         0         0         0         0         0         0         0         0         0         0         0         0         0         0         0 
dram[3]:         0         0         0         0        15         0         0         0         0         0         0         0         0         0         0         0 
dram[4]:         0         0         0         0         0         0         0         0         0         0         0         0         0         0         0         0 
dram[5]:         0         0         0         0         0         0         0         0         0         0         0         0         0         0         0         0 
dram[6]:         0         0         0         0         0         0         0         0         0         0         0         0         0         0         0         0 
dram[7]:         0         0         0         0         0         0         0         0         0         0         0         0         0         0         0         0 
dram[8]:         0         0         9         0         0         0         0         0         0         0         0         0         0         0         0         0 
dram[9]:         0         0         0         0         0         0         0         0         0         0         0         0         0         0         0         0 
dram[10]:         0         0         0         9         0         0         0         0         0         0         0         0         0         0         0         0 
maximum service time to same row:
dram[0]:         0         0      3755      3757      8965      8967         0         0         0         0         0         0         0     65312         0         0 
dram[1]:         0         0      3760      3763     97506      8966         0         0         0     67918     42830         0         0         0         0         0 
dram[2]:         0         0      3755      3757      8965      8967    101261         0     97038         0         0         0         0         0         0         0 
dram[3]:         0         0      3760      3763     89691      8966         0     76253     84589         0         0         0         0         0         0         0 
dram[4]:         0         0      3755      3757      8965      8967     59581     90320         0         0         0     62186         0         0       228       789 
dram[5]:         0         0      3758      3761      8969      8971     92925         0     95530         0         0         0         0         0     43093      4014 
dram[6]:         0         0      3755      3757      8965      8967         0         0         0     70522     78858     96284     81984         0         0         0 
dram[7]:     53993         0      3755      3757      8969      8971         0         0     51022         0         0         0         0         0         0         0 
dram[8]:         0         0     69893      3757      8965      8967         0    103867         0         0     87194         0         0         0         0         0 
dram[9]:         0         0      3755      3757      8969      8971         0         0         0         0         0         0         0         0         0         0 
dram[10]:         0         0      3755     53219      8965      8967    101263         0         0         0         0         0         0         0         0         0 
average row accesses per activate:
dram[0]:       inf      -nan  8.000000  8.000000 15.000000 15.000000      -nan      -nan      -nan      -nan      -nan      -nan      -nan  2.000000      -nan      -nan 
dram[1]:      -nan      -nan  8.000000  8.000000  8.500000 15.000000      -nan      -nan      -nan  2.000000  1.000000      -nan      -nan      -nan      -nan      -nan 
dram[2]:      -nan      -nan  8.000000  8.000000 15.000000 15.000000  2.000000      -nan  1.000000      -nan      -nan      -nan      -nan      -nan      -nan      -nan 
dram[3]:      -nan      -nan  9.000000  9.000000  8.500000 15.000000      -nan  4.000000  2.000000      -nan      -nan      -nan      -nan      -nan      -nan      -nan 
dram[4]:      -nan      -nan  9.000000  9.000000 15.000000 15.000000  2.000000  2.000000      -nan      -nan      -nan  1.000000      -nan      -nan  1.000000  1.000000 
dram[5]:      -nan      -nan  9.000000  9.000000 15.000000 15.000000  2.000000      -nan  1.000000      -nan      -nan      -nan      -nan      -nan  1.000000  1.000000 
dram[6]:      -nan      -nan  9.000000  9.000000 14.000000 14.000000      -nan      -nan      -nan  1.000000  1.000000  1.000000  2.000000      -nan      -nan      -nan 
dram[7]:  1.000000      -nan  9.000000  9.000000 14.000000 14.000000      -nan      -nan  1.000000      -nan      -nan      -nan      -nan      -nan      -nan      -nan 
dram[8]:      -nan      -nan  5.500000  9.000000 14.000000 14.000000      -nan  2.000000      -nan      -nan  1.000000      -nan      -nan      -nan      -nan      -nan 
dram[9]:      -nan      -nan  9.000000  9.000000 14.000000 14.000000      -nan      -nan      -nan      -nan      -nan      -nan      -nan      -nan      -nan      -nan 
dram[10]:      -nan      -nan  9.000000  5.500000 14.000000 14.000000  2.000000      -nan      -nan      -nan      -nan      -nan      -nan      -nan      -nan      -nan 
average row locality = 560/74 = 7.567567
number of total memory accesses made:
dram[0]:         0         0         0         0         0         0         0         0         0         0         0         0         0         0         0         0 
dram[1]:         0         0         0         0         0         0         0         0         0         0         0         0         0         0         0         0 
dram[2]:         0         0         0         0         0         0         0         0         0         0         0         0         0         0         0         0 
dram[3]:         0         0         0         0         0         0         0         0         0         0         0         0         0         0         0         0 
dram[4]:         0         0         0         0         0         0         0         0         0         0         0         0         0         0         0         0 
dram[5]:         0         0         0         0         0         0         0         0         0         0         0         0         0         0         0         0 
dram[6]:         0         0         0         0         0         0         0         0         0         0         0         0         0         0         0         0 
dram[7]:         0         0         0         0         0         0         0         0         0         0         0         0         0         0         0         0 
dram[8]:         0         0         0         0         0         0         0         0         0         0         0         0         0         0         0         0 
dram[9]:         0         0         0         0         0         0         0         0         0         0         0         0         0         0         0         0 
dram[10]:         0         0         0         0         0         0         0         0         0         0         0         0         0         0         0         0 
total accesses: 0
min_bank_accesses = 0!
min_chip_accesses = 0!
number of total read accesses:
dram[0]:         1         0         8         8        15        15         0         0         0         0         0         0         0         1         0         0 
dram[1]:         0         0         8         8        16        15         0         0         0         1         2         0         0         0         0         0 
dram[2]:         0         0         8         8        15        15         1         0         1         0         0         0         0         0         0         0 
dram[3]:         0         0         9         9        16        15         0         2         1         0         0         0         0         0         0         0 
dram[4]:         0         0         9         9        15        15         1         1         0         0         0         1         0         0         1         1 
dram[5]:         0         0         9         9        15        15         1         0         1         0         0         0         0         0         1         1 
dram[6]:         0         0         9         9        14        14         0         0         0         1         1         1         1         0         0         0 
dram[7]:         1         0         9         9        14        14         0         0         1         0         0         0         0         0         0         0 
dram[8]:         0         0        10         9        14        14         0         1         0         0         1         0         0         0         0         0 
dram[9]:         0         0         9         9        14        14         0         0         0         0         0         0         0         0         0         0 
dram[10]:         0         0         9        10        14        14         1         0         0         0         0         0         0         0         0         0 
total reads: 544
min_bank_accesses = 0!
chip skew: 53/46 = 1.15
number of total write accesses:
dram[0]:         0         0         0         0         0         0         0         0         0         0         0         0         0         1         0         0 
dram[1]:         0         0         0         0         1         0         0         0         0         1         0         0         0         0         0         0 
dram[2]:         0         0         0         0         0         0         1         0         0         0         0         0         0         0         0         0 
dram[3]:         0         0         0         0         1         0         0         2         1         0         0         0         0         0         0         0 
dram[4]:         0         0         0         0         0         0         1         1         0         0         0         0         0         0         0         0 
dram[5]:         0         0         0         0         0         0         1         0         0         0         0         0         0         0         0         0 
dram[6]:         0         0         0         0         0         0         0         0         0         0         0         0         1         0         0         0 
dram[7]:         0         0         0         0         0         0         0         0         0         0         0         0         0         0         0         0 
dram[8]:         0         0         1         0         0         0         0         1         0         0         0         0         0         0         0         0 
dram[9]:         0         0         0         0         0         0         0         0         0         0         0         0         0         0         0         0 
dram[10]:         0         0         0         1         0         0         1         0         0         0         0         0         0         0         0         0 
total reads: 16
min_bank_accesses = 0!
min_chip_accesses = 0!
average mf latency per bank:
dram[0]:       6678    none       53292     53298    102453    102416    none      none      none      none      none      none      none        1473    none      none  
dram[1]:     none      none       58504     58509     91612    103178    none      none      none        2769     22170    none      none      none      none      none  
dram[2]:     none      none       61131     61140    101815    101787      2769    none         250    none      none      none      none      none      none      none  
dram[3]:     none      none       56817     56813     95542    108051    none        1443      2769    none      none      none      none      none      none      none  
dram[4]:     none      none       56768     56783    108132    108103      2769      1473    none      none      none        7832    none      none           0         0
dram[5]:     none      none       56772     56785    110208    110169      2769    none        7832    none      none      none      none      none           0         0
dram[6]:     none      none       60249     60255    107681    107642    none      none      none        7832      7832       250      1473    none      none      none  
dram[7]:       3868    none       50977     50991    108966    108931    none      none        2958    none      none      none      none      none      none      none  
dram[8]:     none      none       46722     56770    109707    109673    none        3701    none      none        7832    none      none      none      none      none  
dram[9]:     none      none       56766     56764    104501    104448    none      none      none      none      none      none      none      none      none      none  
dram[10]:     none      none       56766     46712    107465    107420      2016    none      none      none      none      none      none      none      none      none  
maximum mf latency per bank:
dram[0]:        252         0     23732     23735     38816     38808         0         0         0         0         0         0         0      2947         0         0
dram[1]:          0         0     23727     23732     38944     38939         0         0         0      5538     36433         0         0         0         0         0
dram[2]:          0         0     23745     23753     38921     38908      5538         0       250         0         0         0         0         0         0         0
dram[3]:          0         0     23747     23755     38943     38938         0      5538      5538         0         0         0         0         0         0         0
dram[4]:          0         0     23738     23748     38920     38908      5538      2947         0         0         0      7832         0         0         0         0
dram[5]:          0         0     23743     23751     38940     38937      5538         0      7832         0         0         0         0         0         0         0
dram[6]:          0         0     23735     23746     38914     38898         0         0         0      7832      7832       250      2947         0         0         0
dram[7]:       2958         0     23736     23743     38824     38819         0         0      2958         0         0         0         0         0         0         0
dram[8]:          0         0     23736     23741     38798     38780         0      7403         0         0      7832         0         0         0         0         0
dram[9]:          0         0     23735     23738     38820     38815         0         0         0         0         0         0         0         0         0         0
dram[10]:          0         0     23733     23738     38794     38776      4032         0         0         0         0         0         0         0         0         0
Memory Partition 0: 
Cache L2_bank_000:
MSHR contents

Cache L2_bank_001:
MSHR contents

In Dram Latency Queue (total = 0): 
DRAM[0]: 16 bks, busW=4 BL=8 CL=12, tRRD=2 tCCD=6, tRCD=12 tRAS=28 tRP=12 tRC=40
n_cmd=197735 n_nop=197536 n_act=6 n_pre=0 n_req=49 n_rd=192 n_write=1 bw_util=0.001952
n_activity=632 dram_eff=0.6108
bk0: 4a 197716i bk1: 0a 197736i bk2: 32a 197658i bk3: 32a 197627i bk4: 60a 197606i bk5: 60a 197533i bk6: 0a 197734i bk7: 0a 197734i bk8: 0a 197734i bk9: 0a 197735i bk10: 0a 197735i bk11: 0a 197735i bk12: 0a 197735i bk13: 4a 197710i bk14: 0a 197734i bk15: 0a 197735i 
dram_util_bins: 0 0 0 0 0 0 0 0 0 0
dram_eff_bins: 0 0 0 0 0 0 0 0 0 0
mrqq: max=2 avg=0.000571472
Memory Partition 1: 
Cache L2_bank_002:
MSHR contents
MSHR: tag=0xc0244400, atomic=0 1 entries : 0x7f54ea76f080 :  mf: uid= 50823, sid01:w00, part=1, addr=0xc0244440, load , size=32, unknown  status = IN_PARTITION_DRAM (331175), 

Cache L2_bank_003:
MSHR contents

In Dram Latency Queue (total = 0): 
DRAM[1]: 16 bks, busW=4 BL=8 CL=12, tRRD=2 tCCD=6, tRCD=12 tRAS=28 tRP=12 tRC=40
n_cmd=197735 n_nop=197525 n_act=8 n_pre=2 n_req=52 n_rd=198 n_write=2 bw_util=0.002023
n_activity=727 dram_eff=0.5502
bk0: 0a 197736i bk1: 0a 197737i bk2: 32a 197666i bk3: 32a 197628i bk4: 62a 197580i bk5: 60a 197533i bk6: 0a 197734i bk7: 0a 197735i bk8: 0a 197736i bk9: 4a 197710i bk10: 8a 197683i bk11: 0a 197732i bk12: 0a 197734i bk13: 0a 197734i bk14: 0a 197735i bk15: 0a 197735i 
dram_util_bins: 0 0 0 0 0 0 0 0 0 0
dram_eff_bins: 0 0 0 0 0 0 0 0 0 0
mrqq: max=2 avg=0.000616987
Memory Partition 2: 
Cache L2_bank_004:
MSHR contents

Cache L2_bank_005:
MSHR contents

In Dram Latency Queue (total = 0): 
DRAM[2]: 16 bks, busW=4 BL=8 CL=12, tRRD=2 tCCD=6, tRCD=12 tRAS=28 tRP=12 tRC=40
n_cmd=197735 n_nop=197536 n_act=6 n_pre=0 n_req=49 n_rd=192 n_write=1 bw_util=0.001952
n_activity=640 dram_eff=0.6031
bk0: 0a 197735i bk1: 0a 197736i bk2: 32a 197665i bk3: 32a 197627i bk4: 60a 197616i bk5: 60a 197528i bk6: 4a 197710i bk7: 0a 197735i bk8: 4a 197715i bk9: 0a 197733i bk10: 0a 197734i bk11: 0a 197734i bk12: 0a 197734i bk13: 0a 197734i bk14: 0a 197734i bk15: 0a 197735i 
dram_util_bins: 0 0 0 0 0 0 0 0 0 0
dram_eff_bins: 0 0 0 0 0 0 0 0 0 0
mrqq: max=2 avg=0.000525956
Memory Partition 3: 
Cache L2_bank_006:
MSHR contents

Cache L2_bank_007:
MSHR contents

In Dram Latency Queue (total = 0): 
DRAM[3]: 16 bks, busW=4 BL=8 CL=12, tRRD=2 tCCD=6, tRCD=12 tRAS=28 tRP=12 tRC=40
n_cmd=197735 n_nop=197515 n_act=7 n_pre=1 n_req=56 n_rd=208 n_write=4 bw_util=0.002144
n_activity=738 dram_eff=0.5745
bk0: 0a 197736i bk1: 0a 197739i bk2: 36a 197661i bk3: 36a 197612i bk4: 64a 197570i bk5: 60a 197532i bk6: 0a 197734i bk7: 8a 197691i bk8: 4a 197707i bk9: 0a 197732i bk10: 0a 197733i bk11: 0a 197733i bk12: 0a 197733i bk13: 0a 197735i bk14: 0a 197735i bk15: 0a 197736i 
dram_util_bins: 0 0 0 0 0 0 0 0 0 0
dram_eff_bins: 0 0 0 0 0 0 0 0 0 0
mrqq: max=2 avg=0.000647331
Memory Partition 4: 
Cache L2_bank_008:
MSHR contents

Cache L2_bank_009:
MSHR contents

In Dram Latency Queue (total = 0): 
DRAM[4]: 16 bks, busW=4 BL=8 CL=12, tRRD=2 tCCD=6, tRCD=12 tRAS=28 tRP=12 tRC=40
n_cmd=197735 n_nop=197512 n_act=9 n_pre=0 n_req=55 n_rd=212 n_write=2 bw_util=0.002165
n_activity=776 dram_eff=0.5515
bk0: 0a 197735i bk1: 0a 197738i bk2: 36a 197660i bk3: 36a 197614i bk4: 60a 197609i bk5: 60a 197529i bk6: 4a 197710i bk7: 4a 197708i bk8: 0a 197732i bk9: 0a 197734i bk10: 0a 197734i bk11: 4a 197714i bk12: 0a 197732i bk13: 0a 197734i bk14: 4a 197714i bk15: 4a 197716i 
dram_util_bins: 0 0 0 0 0 0 0 0 0 0
dram_eff_bins: 0 0 0 0 0 0 0 0 0 0
mrqq: max=2 avg=0.000576529
Memory Partition 5: 
Cache L2_bank_010:
MSHR contents

Cache L2_bank_011:
MSHR contents

In Dram Latency Queue (total = 0): 
DRAM[5]: 16 bks, busW=4 BL=8 CL=12, tRRD=2 tCCD=6, tRCD=12 tRAS=28 tRP=12 tRC=40
n_cmd=197735 n_nop=197518 n_act=8 n_pre=0 n_req=53 n_rd=208 n_write=1 bw_util=0.002114
n_activity=744 dram_eff=0.5618
bk0: 0a 197733i bk1: 0a 197734i bk2: 36a 197648i bk3: 36a 197599i bk4: 60a 197606i bk5: 60a 197532i bk6: 4a 197710i bk7: 0a 197734i bk8: 4a 197715i bk9: 0a 197734i bk10: 0a 197735i bk11: 0a 197737i bk12: 0a 197737i bk13: 0a 197737i bk14: 4a 197717i bk15: 4a 197715i 
dram_util_bins: 0 0 0 0 0 0 0 0 0 0
dram_eff_bins: 0 0 0 0 0 0 0 0 0 0
mrqq: max=1 avg=0.000414696
Memory Partition 6: 
Cache L2_bank_012:
MSHR contents

Cache L2_bank_013:
MSHR contents

In Dram Latency Queue (total = 0): 
DRAM[6]: 16 bks, busW=4 BL=8 CL=12, tRRD=2 tCCD=6, tRCD=12 tRAS=28 tRP=12 tRC=40
n_cmd=197735 n_nop=197526 n_act=8 n_pre=0 n_req=51 n_rd=200 n_write=1 bw_util=0.002033
n_activity=728 dram_eff=0.5522
bk0: 0a 197735i bk1: 0a 197737i bk2: 36a 197651i bk3: 36a 197605i bk4: 56a 197613i bk5: 56a 197550i bk6: 0a 197734i bk7: 0a 197735i bk8: 0a 197735i bk9: 4a 197717i bk10: 4a 197716i bk11: 4a 197715i bk12: 4a 197708i bk13: 0a 197733i bk14: 0a 197734i bk15: 0a 197735i 
dram_util_bins: 0 0 0 0 0 0 0 0 0 0
dram_eff_bins: 0 0 0 0 0 0 0 0 0 0
mrqq: max=1 avg=0.000379296
Memory Partition 7: 
Cache L2_bank_014:
MSHR contents

Cache L2_bank_015:
MSHR contents

In Dram Latency Queue (total = 0): 
DRAM[7]: 16 bks, busW=4 BL=8 CL=12, tRRD=2 tCCD=6, tRCD=12 tRAS=28 tRP=12 tRC=40
n_cmd=197735 n_nop=197537 n_act=6 n_pre=0 n_req=48 n_rd=192 n_write=0 bw_util=0.001942
n_activity=640 dram_eff=0.6
bk0: 4a 197717i bk1: 0a 197736i bk2: 36a 197649i bk3: 36a 197602i bk4: 56a 197621i bk5: 56a 197539i bk6: 0a 197733i bk7: 0a 197734i bk8: 4a 197715i bk9: 0a 197733i bk10: 0a 197734i bk11: 0a 197736i bk12: 0a 197736i bk13: 0a 197736i bk14: 0a 197736i bk15: 0a 197737i 
dram_util_bins: 0 0 0 0 0 0 0 0 0 0
dram_eff_bins: 0 0 0 0 0 0 0 0 0 0
mrqq: max=2 avg=0.00050067
Memory Partition 8: 
Cache L2_bank_016:
MSHR contents

Cache L2_bank_017:
MSHR contents

In Dram Latency Queue (total = 0): 
DRAM[8]: 16 bks, busW=4 BL=8 CL=12, tRRD=2 tCCD=6, tRCD=12 tRAS=28 tRP=12 tRC=40
n_cmd=197735 n_nop=197529 n_act=7 n_pre=1 n_req=51 n_rd=196 n_write=2 bw_util=0.002003
n_activity=692 dram_eff=0.5723
bk0: 0a 197735i bk1: 0a 197738i bk2: 40a 197621i bk3: 36a 197606i bk4: 56a 197614i bk5: 56a 197547i bk6: 0a 197735i bk7: 4a 197709i bk8: 0a 197733i bk9: 0a 197735i bk10: 4a 197715i bk11: 0a 197733i bk12: 0a 197734i bk13: 0a 197735i bk14: 0a 197735i bk15: 0a 197735i 
dram_util_bins: 0 0 0 0 0 0 0 0 0 0
dram_eff_bins: 0 0 0 0 0 0 0 0 0 0
mrqq: max=2 avg=0.000576529
Memory Partition 9: 
Cache L2_bank_018:
MSHR contents

Cache L2_bank_019:
MSHR contents

In Dram Latency Queue (total = 0): 
DRAM[9]: 16 bks, busW=4 BL=8 CL=12, tRRD=2 tCCD=6, tRCD=12 tRAS=28 tRP=12 tRC=40
n_cmd=197735 n_nop=197547 n_act=4 n_pre=0 n_req=46 n_rd=184 n_write=0 bw_util=0.001861
n_activity=560 dram_eff=0.6571
bk0: 0a 197735i bk1: 0a 197737i bk2: 36a 197650i bk3: 36a 197611i bk4: 56a 197614i bk5: 56a 197542i bk6: 0a 197734i bk7: 0a 197734i bk8: 0a 197734i bk9: 0a 197735i bk10: 0a 197735i bk11: 0a 197735i bk12: 0a 197735i bk13: 0a 197735i bk14: 0a 197735i bk15: 0a 197735i 
dram_util_bins: 0 0 0 0 0 0 0 0 0 0
dram_eff_bins: 0 0 0 0 0 0 0 0 0 0
mrqq: max=2 avg=0.000424811
Memory Partition 10: 
Cache L2_bank_020:
MSHR contents

Cache L2_bank_021:
MSHR contents

In Dram Latency Queue (total = 0): 
DRAM[10]: 16 bks, busW=4 BL=8 CL=12, tRRD=2 tCCD=6, tRCD=12 tRAS=28 tRP=12 tRC=40
n_cmd=197735 n_nop=197534 n_act=6 n_pre=1 n_req=50 n_rd=192 n_write=2 bw_util=0.001962
n_activity=652 dram_eff=0.5951
bk0: 0a 197736i bk1: 0a 197738i bk2: 36a 197659i bk3: 40a 197572i bk4: 56a 197613i bk5: 56a 197554i bk6: 4a 197708i bk7: 0a 197732i bk8: 0a 197733i bk9: 0a 197734i bk10: 0a 197734i bk11: 0a 197735i bk12: 0a 197735i bk13: 0a 197736i bk14: 0a 197736i bk15: 0a 197736i 
dram_util_bins: 0 0 0 0 0 0 0 0 0 0
dram_eff_bins: 0 0 0 0 0 0 0 0 0 0
mrqq: max=2 avg=0.0005563

========= L2 cache stats =========
L2_cache_bank[0]: Access = 120, Miss = 24, Miss_rate = 0.200, Pending_hits = 96, Reservation_fails = 0
L2_cache_bank[1]: Access = 93, Miss = 24, Miss_rate = 0.258, Pending_hits = 69, Reservation_fails = 0
L2_cache_bank[2]: Access = 119, Miss = 26, Miss_rate = 0.218, Pending_hits = 69, Reservation_fails = 0
L2_cache_bank[3]: Access = 93, Miss = 24, Miss_rate = 0.258, Pending_hits = 69, Reservation_fails = 0
L2_cache_bank[4]: Access = 94, Miss = 25, Miss_rate = 0.266, Pending_hits = 69, Reservation_fails = 0
L2_cache_bank[5]: Access = 92, Miss = 23, Miss_rate = 0.250, Pending_hits = 69, Reservation_fails = 0
L2_cache_bank[6]: Access = 99, Miss = 26, Miss_rate = 0.263, Pending_hits = 72, Reservation_fails = 0
L2_cache_bank[7]: Access = 98, Miss = 26, Miss_rate = 0.265, Pending_hits = 72, Reservation_fails = 0
L2_cache_bank[8]: Access = 125, Miss = 26, Miss_rate = 0.208, Pending_hits = 99, Reservation_fails = 0
L2_cache_bank[9]: Access = 126, Miss = 27, Miss_rate = 0.214, Pending_hits = 99, Reservation_fails = 0
L2_cache_bank[10]: Access = 99, Miss = 27, Miss_rate = 0.273, Pending_hits = 72, Reservation_fails = 0
L2_cache_bank[11]: Access = 124, Miss = 25, Miss_rate = 0.202, Pending_hits = 79, Reservation_fails = 0
L2_cache_bank[12]: Access = 94, Miss = 25, Miss_rate = 0.266, Pending_hits = 69, Reservation_fails = 0
L2_cache_bank[13]: Access = 94, Miss = 25, Miss_rate = 0.266, Pending_hits = 69, Reservation_fails = 0
L2_cache_bank[14]: Access = 101, Miss = 25, Miss_rate = 0.248, Pending_hits = 69, Reservation_fails = 0
L2_cache_bank[15]: Access = 92, Miss = 23, Miss_rate = 0.250, Pending_hits = 69, Reservation_fails = 0
L2_cache_bank[16]: Access = 94, Miss = 25, Miss_rate = 0.266, Pending_hits = 69, Reservation_fails = 0
L2_cache_bank[17]: Access = 93, Miss = 24, Miss_rate = 0.258, Pending_hits = 69, Reservation_fails = 0
L2_cache_bank[18]: Access = 92, Miss = 23, Miss_rate = 0.250, Pending_hits = 69, Reservation_fails = 0
L2_cache_bank[19]: Access = 92, Miss = 23, Miss_rate = 0.250, Pending_hits = 69, Reservation_fails = 0
L2_cache_bank[20]: Access = 93, Miss = 24, Miss_rate = 0.258, Pending_hits = 69, Reservation_fails = 0
L2_cache_bank[21]: Access = 93, Miss = 24, Miss_rate = 0.258, Pending_hits = 69, Reservation_fails = 0
L2_total_cache_accesses = 2220
L2_total_cache_misses = 544
L2_total_cache_miss_rate = 0.2450
L2_total_cache_pending_hits = 1624
L2_total_cache_reservation_fails = 0
L2_total_cache_breakdown:
	L2_cache_stats_breakdown[GLOBAL_ACC_R][HIT] = 31
	L2_cache_stats_breakdown[GLOBAL_ACC_R][HIT_RESERVED] = 1536
	L2_cache_stats_breakdown[GLOBAL_ACC_R][MISS] = 523
	L2_cache_stats_breakdown[GLOBAL_ACC_R][RESERVATION_FAIL] = 0
	L2_cache_stats_breakdown[LOCAL_ACC_R][HIT] = 0
	L2_cache_stats_breakdown[LOCAL_ACC_R][HIT_RESERVED] = 0
	L2_cache_stats_breakdown[LOCAL_ACC_R][MISS] = 0
	L2_cache_stats_breakdown[LOCAL_ACC_R][RESERVATION_FAIL] = 0
	L2_cache_stats_breakdown[CONST_ACC_R][HIT] = 0
	L2_cache_stats_breakdown[CONST_ACC_R][HIT_RESERVED] = 27
	L2_cache_stats_breakdown[CONST_ACC_R][MISS] = 1
	L2_cache_stats_breakdown[CONST_ACC_R][RESERVATION_FAIL] = 0
	L2_cache_stats_breakdown[TEXTURE_ACC_R][HIT] = 0
	L2_cache_stats_breakdown[TEXTURE_ACC_R][HIT_RESERVED] = 0
	L2_cache_stats_breakdown[TEXTURE_ACC_R][MISS] = 0
	L2_cache_stats_breakdown[TEXTURE_ACC_R][RESERVATION_FAIL] = 0
	L2_cache_stats_breakdown[GLOBAL_ACC_W][HIT] = 1
	L2_cache_stats_breakdown[GLOBAL_ACC_W][HIT_RESERVED] = 0
	L2_cache_stats_breakdown[GLOBAL_ACC_W][MISS] = 16
	L2_cache_stats_breakdown[GLOBAL_ACC_W][RESERVATION_FAIL] = 0
	L2_cache_stats_breakdown[LOCAL_ACC_W][HIT] = 0
	L2_cache_stats_breakdown[LOCAL_ACC_W][HIT_RESERVED] = 0
	L2_cache_stats_breakdown[LOCAL_ACC_W][MISS] = 0
	L2_cache_stats_breakdown[LOCAL_ACC_W][RESERVATION_FAIL] = 0
	L2_cache_stats_breakdown[L1_WRBK_ACC][HIT] = 0
	L2_cache_stats_breakdown[L1_WRBK_ACC][HIT_RESERVED] = 0
	L2_cache_stats_breakdown[L1_WRBK_ACC][MISS] = 0
	L2_cache_stats_breakdown[L1_WRBK_ACC][RESERVATION_FAIL] = 0
	L2_cache_stats_breakdown[L2_WRBK_ACC][HIT] = 0
	L2_cache_stats_breakdown[L2_WRBK_ACC][HIT_RESERVED] = 0
	L2_cache_stats_breakdown[L2_WRBK_ACC][MISS] = 0
	L2_cache_stats_breakdown[L2_WRBK_ACC][RESERVATION_FAIL] = 0
	L2_cache_stats_breakdown[INST_ACC_R][HIT] = 20
	L2_cache_stats_breakdown[INST_ACC_R][HIT_RESERVED] = 61
	L2_cache_stats_breakdown[INST_ACC_R][MISS] = 4
	L2_cache_stats_breakdown[INST_ACC_R][RESERVATION_FAIL] = 0
	L2_cache_stats_breakdown[L1_WR_ALLOC_R][HIT] = 0
	L2_cache_stats_breakdown[L1_WR_ALLOC_R][HIT_RESERVED] = 0
	L2_cache_stats_breakdown[L1_WR_ALLOC_R][MISS] = 0
	L2_cache_stats_breakdown[L1_WR_ALLOC_R][RESERVATION_FAIL] = 0
	L2_cache_stats_breakdown[L2_WR_ALLOC_R][HIT] = 0
	L2_cache_stats_breakdown[L2_WR_ALLOC_R][HIT_RESERVED] = 0
	L2_cache_stats_breakdown[L2_WR_ALLOC_R][MISS] = 0
	L2_cache_stats_breakdown[L2_WR_ALLOC_R][RESERVATION_FAIL] = 0
	L2_cache_stats_breakdown[GLOBAL_ACC_R][TOTAL_ACCESS] = 2090
	L2_cache_stats_breakdown[CONST_ACC_R][TOTAL_ACCESS] = 28
	L2_cache_stats_breakdown[GLOBAL_ACC_W][TOTAL_ACCESS] = 17
	L2_cache_stats_breakdown[INST_ACC_R][TOTAL_ACCESS] = 85
L2_cache_data_port_util = 0.000
L2_cache_fill_port_util = 0.001

icnt_total_pkts_mem_to_simt=4706
icnt_total_pkts_simt_to_mem=2237
LD_mem_lat_dist  0 0 0 0 0 0 0 0 0 0 0 0 0 0 0 0 0 0 0 0 0 0 0 0 0 0 0
ST_mem_lat_dist  0 0 0 0 0 0 0 0 0 0 0 0 0 0 0 0 0 0 0 0 0 0 0 0 0 0 0
----------------------------Interconnect-DETAILS--------------------------------
Class 0:
Packet latency average = 11.1302
	minimum = 6
	maximum = 60
Network latency average = 10.7187
	minimum = 6
	maximum = 60
Slowest packet = 27
Flit latency average = 11.3088
	minimum = 6
	maximum = 60
Slowest flit = 27
Fragmentation average = 0
	minimum = 0
	maximum = 0
Injected packet rate average = 0.000416943
	minimum = 0.00031928 (at node 9)
	maximum = 0.000676123 (at node 1)
Accepted packet rate average = 0.000416943
	minimum = 0.00031928 (at node 9)
	maximum = 0.000676123 (at node 1)
Injected flit rate average = 0.000651989
	minimum = 0.00031928 (at node 9)
	maximum = 0.00157293 (at node 37)
Accepted flit rate average= 0.000651989
	minimum = 0.000431967 (at node 33)
	maximum = 0.00133346 (at node 1)
Injected packet length average = 1.56374
Accepted packet length average = 1.56374
Total in-flight flits = 0 (0 measured)
====== Overall Traffic Statistics ======
====== Traffic class 0 ======
Packet latency average = 11.1302 (1 samples)
	minimum = 6 (1 samples)
	maximum = 60 (1 samples)
Network latency average = 10.7187 (1 samples)
	minimum = 6 (1 samples)
	maximum = 60 (1 samples)
Flit latency average = 11.3088 (1 samples)
	minimum = 6 (1 samples)
	maximum = 60 (1 samples)
Fragmentation average = 0 (1 samples)
	minimum = 0 (1 samples)
	maximum = 0 (1 samples)
Injected packet rate average = 0.000416943 (1 samples)
	minimum = 0.00031928 (1 samples)
	maximum = 0.000676123 (1 samples)
Accepted packet rate average = 0.000416943 (1 samples)
	minimum = 0.00031928 (1 samples)
	maximum = 0.000676123 (1 samples)
Injected flit rate average = 0.000651989 (1 samples)
	minimum = 0.00031928 (1 samples)
	maximum = 0.00157293 (1 samples)
Accepted flit rate average = 0.000651989 (1 samples)
	minimum = 0.000431967 (1 samples)
	maximum = 0.00133346 (1 samples)
Injected packet size average = 1.56374 (1 samples)
Accepted packet size average = 1.56374 (1 samples)
Hops average = 1 (1 samples)
----------------------------END-of-Interconnect-DETAILS-------------------------


gpgpu_simulation_time = 0 days, 0 hrs, 1 min, 16 sec (76 sec)
gpgpu_simulation_rate = 16386 (inst/sec)
gpgpu_simulation_rate = 4357 (cycle/sec)

GPGPU-Sim PTX: cudaLaunch for 0x0x401649 (mode=performance simulation) on stream 0
GPGPU-Sim PTX: pushing kernel '_Z7Kernel2PbS_S_S_i' to stream 0, gridDim= (128,1,1) blockDim = (512,1,1) 
GPGPU-Sim uArch: Shader 0 bind to kernel 2 '_Z7Kernel2PbS_S_S_i'
GPGPU-Sim uArch: CTA/core = 4, limited by: threads
GPGPU-Sim uArch: Shader 1 bind to kernel 2 '_Z7Kernel2PbS_S_S_i'
GPGPU-Sim uArch: Shader 2 bind to kernel 2 '_Z7Kernel2PbS_S_S_i'
GPGPU-Sim uArch: Shader 3 bind to kernel 2 '_Z7Kernel2PbS_S_S_i'
GPGPU-Sim uArch: Shader 4 bind to kernel 2 '_Z7Kernel2PbS_S_S_i'
GPGPU-Sim uArch: Shader 5 bind to kernel 2 '_Z7Kernel2PbS_S_S_i'
GPGPU-Sim uArch: Shader 6 bind to kernel 2 '_Z7Kernel2PbS_S_S_i'
GPGPU-Sim uArch: Shader 7 bind to kernel 2 '_Z7Kernel2PbS_S_S_i'
GPGPU-Sim uArch: Shader 8 bind to kernel 2 '_Z7Kernel2PbS_S_S_i'
GPGPU-Sim uArch: Shader 9 bind to kernel 2 '_Z7Kernel2PbS_S_S_i'
GPGPU-Sim uArch: Shader 10 bind to kernel 2 '_Z7Kernel2PbS_S_S_i'
GPGPU-Sim uArch: Shader 11 bind to kernel 2 '_Z7Kernel2PbS_S_S_i'
GPGPU-Sim uArch: Shader 12 bind to kernel 2 '_Z7Kernel2PbS_S_S_i'
GPGPU-Sim uArch: Shader 13 bind to kernel 2 '_Z7Kernel2PbS_S_S_i'
GPGPU-Sim uArch: Shader 14 bind to kernel 2 '_Z7Kernel2PbS_S_S_i'
GPGPU-Sim uArch: Shader 15 bind to kernel 2 '_Z7Kernel2PbS_S_S_i'
GPGPU-Sim uArch: Shader 16 bind to kernel 2 '_Z7Kernel2PbS_S_S_i'
GPGPU-Sim uArch: Shader 17 bind to kernel 2 '_Z7Kernel2PbS_S_S_i'
GPGPU-Sim uArch: Shader 18 bind to kernel 2 '_Z7Kernel2PbS_S_S_i'
GPGPU-Sim uArch: Shader 19 bind to kernel 2 '_Z7Kernel2PbS_S_S_i'
GPGPU-Sim uArch: Shader 20 bind to kernel 2 '_Z7Kernel2PbS_S_S_i'
GPGPU-Sim uArch: Shader 21 bind to kernel 2 '_Z7Kernel2PbS_S_S_i'
GPGPU-Sim uArch: Shader 22 bind to kernel 2 '_Z7Kernel2PbS_S_S_i'
GPGPU-Sim uArch: Shader 23 bind to kernel 2 '_Z7Kernel2PbS_S_S_i'
GPGPU-Sim uArch: Shader 24 bind to kernel 2 '_Z7Kernel2PbS_S_S_i'
GPGPU-Sim uArch: Shader 25 bind to kernel 2 '_Z7Kernel2PbS_S_S_i'
GPGPU-Sim uArch: Shader 26 bind to kernel 2 '_Z7Kernel2PbS_S_S_i'
GPGPU-Sim uArch: Shader 27 bind to kernel 2 '_Z7Kernel2PbS_S_S_i'
Destroy streams for kernel 2: size 0
kernel_name = _Z7Kernel2PbS_S_S_i 
kernel_launch_uid = 2 
gpu_sim_cycle = 27084
gpu_sim_insn = 1114192
gpu_ipc =      41.1384
gpu_tot_sim_cycle = 580410
gpu_tot_sim_insn = 2359568
gpu_tot_ipc =       4.0653
gpu_tot_issued_cta = 256
max_total_param_size = 0
gpu_stall_dramfull = 0
gpu_stall_icnt2sh    = 733
partiton_reqs_in_parallel = 595848
partiton_reqs_in_parallel_total    = 2342780
partiton_level_parallism =      22.0000
partiton_level_parallism_total  =       5.0630
partiton_reqs_in_parallel_util = 595848
partiton_reqs_in_parallel_util_total    = 2342780
gpu_sim_cycle_parition_util = 27084
gpu_tot_sim_cycle_parition_util    = 106490
partiton_level_parallism_util =      22.0000
partiton_level_parallism_util_total  =      22.0000
partiton_replys_in_parallel = 2136
partiton_replys_in_parallel_total    = 2220
L2_BW  =       7.4752 GB/Sec
L2_BW_total  =       0.7114 GB/Sec
gpu_total_sim_rate=17349

========= Core cache stats =========
L1I_cache:
	L1I_total_cache_accesses = 43152
	L1I_total_cache_misses = 4635
	L1I_total_cache_miss_rate = 0.1074
	L1I_total_cache_pending_hits = 0
	L1I_total_cache_reservation_fails = 13692
L1D_cache:
	L1D_cache_core[0]: Access = 0, Miss = 0, Miss_rate = -nan, Pending_hits = 0, Reservation_fails = 0
	L1D_cache_core[1]: Access = 0, Miss = 0, Miss_rate = -nan, Pending_hits = 0, Reservation_fails = 0
	L1D_cache_core[2]: Access = 0, Miss = 0, Miss_rate = -nan, Pending_hits = 0, Reservation_fails = 0
	L1D_cache_core[3]: Access = 0, Miss = 0, Miss_rate = -nan, Pending_hits = 0, Reservation_fails = 0
	L1D_cache_core[4]: Access = 0, Miss = 0, Miss_rate = -nan, Pending_hits = 0, Reservation_fails = 0
	L1D_cache_core[5]: Access = 0, Miss = 0, Miss_rate = -nan, Pending_hits = 0, Reservation_fails = 0
	L1D_cache_core[6]: Access = 0, Miss = 0, Miss_rate = -nan, Pending_hits = 0, Reservation_fails = 0
	L1D_cache_core[7]: Access = 0, Miss = 0, Miss_rate = -nan, Pending_hits = 0, Reservation_fails = 0
	L1D_cache_core[8]: Access = 0, Miss = 0, Miss_rate = -nan, Pending_hits = 0, Reservation_fails = 0
	L1D_cache_core[9]: Access = 0, Miss = 0, Miss_rate = -nan, Pending_hits = 0, Reservation_fails = 0
	L1D_cache_core[10]: Access = 0, Miss = 0, Miss_rate = -nan, Pending_hits = 0, Reservation_fails = 0
	L1D_cache_core[11]: Access = 0, Miss = 0, Miss_rate = -nan, Pending_hits = 0, Reservation_fails = 0
	L1D_cache_core[12]: Access = 0, Miss = 0, Miss_rate = -nan, Pending_hits = 0, Reservation_fails = 0
	L1D_cache_core[13]: Access = 0, Miss = 0, Miss_rate = -nan, Pending_hits = 0, Reservation_fails = 0
	L1D_cache_core[14]: Access = 0, Miss = 0, Miss_rate = -nan, Pending_hits = 0, Reservation_fails = 0
	L1D_cache_core[15]: Access = 0, Miss = 0, Miss_rate = -nan, Pending_hits = 0, Reservation_fails = 0
	L1D_cache_core[16]: Access = 0, Miss = 0, Miss_rate = -nan, Pending_hits = 0, Reservation_fails = 0
	L1D_cache_core[17]: Access = 0, Miss = 0, Miss_rate = -nan, Pending_hits = 0, Reservation_fails = 0
	L1D_cache_core[18]: Access = 0, Miss = 0, Miss_rate = -nan, Pending_hits = 0, Reservation_fails = 0
	L1D_cache_core[19]: Access = 0, Miss = 0, Miss_rate = -nan, Pending_hits = 0, Reservation_fails = 0
	L1D_cache_core[20]: Access = 0, Miss = 0, Miss_rate = -nan, Pending_hits = 0, Reservation_fails = 0
	L1D_cache_core[21]: Access = 0, Miss = 0, Miss_rate = -nan, Pending_hits = 0, Reservation_fails = 0
	L1D_cache_core[22]: Access = 0, Miss = 0, Miss_rate = -nan, Pending_hits = 0, Reservation_fails = 0
	L1D_cache_core[23]: Access = 0, Miss = 0, Miss_rate = -nan, Pending_hits = 0, Reservation_fails = 0
	L1D_cache_core[24]: Access = 0, Miss = 0, Miss_rate = -nan, Pending_hits = 0, Reservation_fails = 0
	L1D_cache_core[25]: Access = 0, Miss = 0, Miss_rate = -nan, Pending_hits = 0, Reservation_fails = 0
	L1D_cache_core[26]: Access = 0, Miss = 0, Miss_rate = -nan, Pending_hits = 0, Reservation_fails = 0
	L1D_cache_core[27]: Access = 0, Miss = 0, Miss_rate = -nan, Pending_hits = 0, Reservation_fails = 0
	L1D_total_cache_accesses = 0
	L1D_total_cache_misses = 0
	L1D_total_cache_pending_hits = 0
	L1D_total_cache_reservation_fails = 0
	L1D_cache_data_port_util = 0.000
	L1D_cache_fill_port_util = 0.000
L1C_cache:
	L1C_total_cache_accesses = 24576
	L1C_total_cache_misses = 1792
	L1C_total_cache_miss_rate = 0.0729
	L1C_total_cache_pending_hits = 0
	L1C_total_cache_reservation_fails = 4886
L1T_cache:
	L1T_total_cache_accesses = 0
	L1T_total_cache_misses = 0
	L1T_total_cache_pending_hits = 0
	L1T_total_cache_reservation_fails = 0

Total_core_cache_stats:
	Total_core_cache_stats_breakdown[GLOBAL_ACC_R][HIT] = 0
	Total_core_cache_stats_breakdown[GLOBAL_ACC_R][HIT_RESERVED] = 0
	Total_core_cache_stats_breakdown[GLOBAL_ACC_R][MISS] = 0
	Total_core_cache_stats_breakdown[GLOBAL_ACC_R][RESERVATION_FAIL] = 0
	Total_core_cache_stats_breakdown[LOCAL_ACC_R][HIT] = 0
	Total_core_cache_stats_breakdown[LOCAL_ACC_R][HIT_RESERVED] = 0
	Total_core_cache_stats_breakdown[LOCAL_ACC_R][MISS] = 0
	Total_core_cache_stats_breakdown[LOCAL_ACC_R][RESERVATION_FAIL] = 0
	Total_core_cache_stats_breakdown[CONST_ACC_R][HIT] = 22784
	Total_core_cache_stats_breakdown[CONST_ACC_R][HIT_RESERVED] = 0
	Total_core_cache_stats_breakdown[CONST_ACC_R][MISS] = 1792
	Total_core_cache_stats_breakdown[CONST_ACC_R][RESERVATION_FAIL] = 4886
	Total_core_cache_stats_breakdown[TEXTURE_ACC_R][HIT] = 0
	Total_core_cache_stats_breakdown[TEXTURE_ACC_R][HIT_RESERVED] = 0
	Total_core_cache_stats_breakdown[TEXTURE_ACC_R][MISS] = 0
	Total_core_cache_stats_breakdown[TEXTURE_ACC_R][RESERVATION_FAIL] = 0
	Total_core_cache_stats_breakdown[GLOBAL_ACC_W][HIT] = 0
	Total_core_cache_stats_breakdown[GLOBAL_ACC_W][HIT_RESERVED] = 0
	Total_core_cache_stats_breakdown[GLOBAL_ACC_W][MISS] = 0
	Total_core_cache_stats_breakdown[GLOBAL_ACC_W][RESERVATION_FAIL] = 0
	Total_core_cache_stats_breakdown[LOCAL_ACC_W][HIT] = 0
	Total_core_cache_stats_breakdown[LOCAL_ACC_W][HIT_RESERVED] = 0
	Total_core_cache_stats_breakdown[LOCAL_ACC_W][MISS] = 0
	Total_core_cache_stats_breakdown[LOCAL_ACC_W][RESERVATION_FAIL] = 0
	Total_core_cache_stats_breakdown[L1_WRBK_ACC][HIT] = 0
	Total_core_cache_stats_breakdown[L1_WRBK_ACC][HIT_RESERVED] = 0
	Total_core_cache_stats_breakdown[L1_WRBK_ACC][MISS] = 0
	Total_core_cache_stats_breakdown[L1_WRBK_ACC][RESERVATION_FAIL] = 0
	Total_core_cache_stats_breakdown[L2_WRBK_ACC][HIT] = 0
	Total_core_cache_stats_breakdown[L2_WRBK_ACC][HIT_RESERVED] = 0
	Total_core_cache_stats_breakdown[L2_WRBK_ACC][MISS] = 0
	Total_core_cache_stats_breakdown[L2_WRBK_ACC][RESERVATION_FAIL] = 0
	Total_core_cache_stats_breakdown[INST_ACC_R][HIT] = 38517
	Total_core_cache_stats_breakdown[INST_ACC_R][HIT_RESERVED] = 0
	Total_core_cache_stats_breakdown[INST_ACC_R][MISS] = 4635
	Total_core_cache_stats_breakdown[INST_ACC_R][RESERVATION_FAIL] = 13692
	Total_core_cache_stats_breakdown[L1_WR_ALLOC_R][HIT] = 0
	Total_core_cache_stats_breakdown[L1_WR_ALLOC_R][HIT_RESERVED] = 0
	Total_core_cache_stats_breakdown[L1_WR_ALLOC_R][MISS] = 0
	Total_core_cache_stats_breakdown[L1_WR_ALLOC_R][RESERVATION_FAIL] = 0
	Total_core_cache_stats_breakdown[L2_WR_ALLOC_R][HIT] = 0
	Total_core_cache_stats_breakdown[L2_WR_ALLOC_R][HIT_RESERVED] = 0
	Total_core_cache_stats_breakdown[L2_WR_ALLOC_R][MISS] = 0
	Total_core_cache_stats_breakdown[L2_WR_ALLOC_R][RESERVATION_FAIL] = 0
	Total_core_cache_stats_breakdown[CONST_ACC_R][TOTAL_ACCESS] = 24576
	Total_core_cache_stats_breakdown[INST_ACC_R][TOTAL_ACCESS] = 43152
Shader 0 warp_id issue ditsribution:
warp_id:
0, 1, 2, 3, 4, 5, 6, 7, 8, 9, 10, 11, 12, 13, 14, 15, 16, 17, 18, 19, 20, 21, 22, 23, 24, 25, 26, 27, 28, 29, 30, 31, 32, 33, 34, 35, 36, 37, 38, 39, 40, 41, 42, 43, 44, 45, 46, 47, 48, 49, 50, 51, 52, 53, 54, 55, 56, 57, 58, 59, 60, 61, 62, 63, 
distro:
67, 67, 66, 67, 66, 67, 66, 67, 67, 67, 67, 67, 67, 67, 67, 67, 44, 44, 44, 44, 44, 44, 44, 44, 44, 44, 44, 44, 44, 44, 44, 44, 44, 44, 44, 44, 44, 44, 44, 44, 44, 44, 44, 44, 44, 44, 44, 44, 44, 44, 44, 44, 44, 44, 44, 44, 44, 44, 44, 44, 44, 44, 44, 44, 
gpgpu_n_tot_thrd_icount = 2499680
gpgpu_n_tot_w_icount = 78115
gpgpu_n_stall_shd_mem = 4886
gpgpu_n_mem_read_local = 0
gpgpu_n_mem_write_local = 0
gpgpu_n_mem_read_global = 4138
gpgpu_n_mem_write_global = 49
gpgpu_n_mem_texture = 0
gpgpu_n_mem_const = 28
gpgpu_n_load_insn  = 131114
gpgpu_n_store_insn = 49
gpgpu_n_shmem_insn = 0
gpgpu_n_tex_insn = 0
gpgpu_n_const_mem_insn = 0
gpgpu_n_param_mem_insn = 786432
gpgpu_n_shmem_bkconflict = 0
gpgpu_n_cache_bkconflict = 0
gpgpu_n_intrawarp_mshr_merge = 0
gpgpu_n_cmem_portconflict = 4886
gpgpu_stall_shd_mem[c_mem][bk_conf] = 4886
gpgpu_stall_shd_mem[c_mem][mshr_rc] = 0
gpgpu_stall_shd_mem[c_mem][icnt_rc] = 0
gpgpu_stall_shd_mem[c_mem][data_port_stall] = 0
gpgpu_stall_shd_mem[t_mem][mshr_rc] = 0
gpgpu_stall_shd_mem[t_mem][icnt_rc] = 0
gpgpu_stall_shd_mem[t_mem][data_port_stall] = 0
gpgpu_stall_shd_mem[s_mem][bk_conf] = 0
gpgpu_stall_shd_mem[gl_mem][bk_conf] = 0
gpgpu_stall_shd_mem[gl_mem][coal_stall] = 0
gpgpu_stall_shd_mem[gl_mem][data_port_stall] = 0
gpgpu_stall_shd_mem[g_mem_ld][mshr_rc] = 0
gpgpu_stall_shd_mem[g_mem_ld][icnt_rc] = 0
gpgpu_stall_shd_mem[g_mem_ld][wb_icnt_rc] = 0
gpgpu_stall_shd_mem[g_mem_ld][wb_rsrv_fail] = 0
gpgpu_stall_shd_mem[g_mem_st][mshr_rc] = 0
gpgpu_stall_shd_mem[g_mem_st][icnt_rc] = 0
gpgpu_stall_shd_mem[g_mem_st][wb_icnt_rc] = 0
gpgpu_stall_shd_mem[g_mem_st][wb_rsrv_fail] = 0
gpgpu_stall_shd_mem[l_mem_ld][mshr_rc] = 0
gpgpu_stall_shd_mem[l_mem_ld][icnt_rc] = 0
gpgpu_stall_shd_mem[l_mem_ld][wb_icnt_rc] = 0
gpgpu_stall_shd_mem[l_mem_ld][wb_rsrv_fail] = 0
gpgpu_stall_shd_mem[l_mem_st][mshr_rc] = 0
gpgpu_stall_shd_mem[l_mem_st][icnt_rc] = 0
gpgpu_stall_shd_mem[l_mem_ld][wb_icnt_rc] = 0
gpgpu_stall_shd_mem[l_mem_ld][wb_rsrv_fail] = 0
gpu_reg_bank_conflict_stalls = 0
Warp Occupancy Distribution:
Stall:20528	W0_Idle:111168	W0_Scoreboard:3248995	W1:291	W2:0	W3:0	W4:0	W5:0	W6:0	W7:0	W8:0	W9:0	W10:0	W11:0	W12:0	W13:0	W14:0	W15:0	W16:0	W17:0	W18:0	W19:0	W20:0	W21:0	W22:0	W23:0	W24:0	W25:0	W26:0	W27:0	W28:0	W29:0	W30:0	W31:0	W32:77824
[...]
F:  2698652----T:  2701257 	 St: c01e0000 Sz: 4096 	 Sm: 0 	 T: memcpy_h2d(1.758947)
F:  2701257----T:  2703862 	 St: c01a7000 Sz: 4096 	 Sm: 0 	 T: memcpy_h2d(1.758947)
F:  2703862----T:  2706467 	 St: c0185000 Sz: 4096 	 Sm: 0 	 T: memcpy_h2d(1.758947)
F:  2706467----T:  2709072 	 St: c01d7000 Sz: 4096 	 Sm: 0 	 T: memcpy_h2d(1.758947)
F:  2709072----T:  2711677 	 St: c01d2000 Sz: 4096 	 Sm: 0 	 T: memcpy_h2d(1.758947)
F:  2711677----T:  2714282 	 St: c01e9000 Sz: 4096 	 Sm: 0 	 T: memcpy_h2d(1.758947)
F:  2714282----T:  2716887 	 St: c01e8000 Sz: 4096 	 Sm: 0 	 T: memcpy_h2d(1.758947)
F:  2716887----T:  2719492 	 St: c01ea000 Sz: 4096 	 Sm: 0 	 T: memcpy_h2d(1.758947)
F:  2719492----T:  2722097 	 St: c018c000 Sz: 4096 	 Sm: 0 	 T: memcpy_h2d(1.758947)
F:  2722097----T:  2724702 	 St: c01da000 Sz: 4096 	 Sm: 0 	 T: memcpy_h2d(1.758947)
F:  2724702----T:  2727307 	 St: c01db000 Sz: 4096 	 Sm: 0 	 T: memcpy_h2d(1.758947)
F:  2727307----T:  2729912 	 St: c0190000 Sz: 4096 	 Sm: 0 	 T: memcpy_h2d(1.758947)
F:  2729912----T:  2732517 	 St: c016b000 Sz: 4096 	 Sm: 0 	 T: memcpy_h2d(1.758947)
F:  2732517----T:  2735122 	 St: c016c000 Sz: 4096 	 Sm: 0 	 T: memcpy_h2d(1.758947)
F:  2735122----T:  2737727 	 St: c017a000 Sz: 4096 	 Sm: 0 	 T: memcpy_h2d(1.758947)
F:  2737727----T:  2740332 	 St: c017b000 Sz: 4096 	 Sm: 0 	 T: memcpy_h2d(1.758947)
F:  2740332----T:  2742937 	 St: c01bf000 Sz: 4096 	 Sm: 0 	 T: memcpy_h2d(1.758947)
F:  2742937----T:  2745542 	 St: c01be000 Sz: 4096 	 Sm: 0 	 T: memcpy_h2d(1.758947)
F:  2745542----T:  2748147 	 St: c0213000 Sz: 4096 	 Sm: 0 	 T: memcpy_h2d(1.758947)
F:  2748147----T:  2750752 	 St: c0212000 Sz: 4096 	 Sm: 0 	 T: memcpy_h2d(1.758947)
F:  2750752----T:  2753357 	 St: c0215000 Sz: 4096 	 Sm: 0 	 T: memcpy_h2d(1.758947)
F:  2753357----T:  2755962 	 St: c0207000 Sz: 4096 	 Sm: 0 	 T: memcpy_h2d(1.758947)
F:  2755962----T:  2758567 	 St: c0218000 Sz: 4096 	 Sm: 0 	 T: memcpy_h2d(1.758947)
F:  2758567----T:  2761172 	 St: c021a000 Sz: 4096 	 Sm: 0 	 T: memcpy_h2d(1.758947)
F:  2761172----T:  2763777 	 St: c020e000 Sz: 4096 	 Sm: 0 	 T: memcpy_h2d(1.758947)
F:  2763777----T:  2766382 	 St: c022e000 Sz: 4096 	 Sm: 0 	 T: memcpy_h2d(1.758947)
F:  2994217----T:  2997156 	 	 	 Kl: 8 	 Sm: 0 	 T: kernel_launch(1.984470)
F:  2997156----T:  2999691 	 St: 80000000 Sz: 1 	 Sm: 0 	 T: memcpy_d2h(1.711681)
F:  2999692----T:  3002227 	 St: 80000000 Sz: 1 	 Sm: 0 	 T: memcpy_h2d(1.711681)
F:  3224378----T:  3674651 	 	 	 Kl: 9 	 Sm: 0 	 T: kernel_launch(304.033081)
F:  3224917----T:  3227522 	 St: c0010000 Sz: 4096 	 Sm: 0 	 T: memcpy_h2d(1.758947)
F:  3227522----T:  3230127 	 St: c0018000 Sz: 4096 	 Sm: 0 	 T: memcpy_h2d(1.758947)
F:  3230127----T:  3232732 	 St: c002d000 Sz: 4096 	 Sm: 0 	 T: memcpy_h2d(1.758947)
F:  3232732----T:  3235337 	 St: c0021000 Sz: 4096 	 Sm: 0 	 T: memcpy_h2d(1.758947)
F:  3235337----T:  3237942 	 St: c0026000 Sz: 4096 	 Sm: 0 	 T: memcpy_h2d(1.758947)
F:  3237942----T:  3240547 	 St: c003f000 Sz: 4096 	 Sm: 0 	 T: memcpy_h2d(1.758947)
F:  3240547----T:  3243152 	 St: c0042000 Sz: 4096 	 Sm: 0 	 T: memcpy_h2d(1.758947)
F:  3243152----T:  3245757 	 St: c003b000 Sz: 4096 	 Sm: 0 	 T: memcpy_h2d(1.758947)
F:  3245757----T:  3248362 	 St: c003c000 Sz: 4096 	 Sm: 0 	 T: memcpy_h2d(1.758947)
F:  3248362----T:  3250967 	 St: c0048000 Sz: 4096 	 Sm: 0 	 T: memcpy_h2d(1.758947)
F:  3250967----T:  3253572 	 St: c005c000 Sz: 4096 	 Sm: 0 	 T: memcpy_h2d(1.758947)
F:  3253572----T:  3256177 	 St: c0057000 Sz: 4096 	 Sm: 0 	 T: memcpy_h2d(1.758947)
F:  3256177----T:  3258782 	 St: c006b000 Sz: 4096 	 Sm: 0 	 T: memcpy_h2d(1.758947)
F:  3258782----T:  3261387 	 St: c00d5000 Sz: 4096 	 Sm: 0 	 T: memcpy_h2d(1.758947)
F:  3261387----T:  3263992 	 St: c0130000 Sz: 4096 	 Sm: 0 	 T: memcpy_h2d(1.758947)
F:  3263992----T:  3266597 	 St: c00d1000 Sz: 4096 	 Sm: 0 	 T: memcpy_h2d(1.758947)
F:  3266597----T:  3269202 	 St: c00fe000 Sz: 4096 	 Sm: 0 	 T: memcpy_h2d(1.758947)
F:  3269202----T:  3271807 	 St: c00d4000 Sz: 4096 	 Sm: 0 	 T: memcpy_h2d(1.758947)
F:  3271807----T:  3274412 	 St: c00f1000 Sz: 4096 	 Sm: 0 	 T: memcpy_h2d(1.758947)
F:  3274412----T:  3277017 	 St: c00e6000 Sz: 4096 	 Sm: 0 	 T: memcpy_h2d(1.758947)
F:  3277017----T:  3279622 	 St: c00b6000 Sz: 4096 	 Sm: 0 	 T: memcpy_h2d(1.758947)
F:  3279622----T:  3282227 	 St: c00e5000 Sz: 4096 	 Sm: 0 	 T: memcpy_h2d(1.758947)
F:  3282227----T:  3284832 	 St: c00bf000 Sz: 4096 	 Sm: 0 	 T: memcpy_h2d(1.758947)
F:  3284832----T:  3287437 	 St: c00db000 Sz: 4096 	 Sm: 0 	 T: memcpy_h2d(1.758947)
F:  3287437----T:  3290042 	 St: c00c0000 Sz: 4096 	 Sm: 0 	 T: memcpy_h2d(1.758947)
F:  3290042----T:  3292647 	 St: c0100000 Sz: 4096 	 Sm: 0 	 T: memcpy_h2d(1.758947)
F:  3292647----T:  3295252 	 St: c00fb000 Sz: 4096 	 Sm: 0 	 T: memcpy_h2d(1.758947)
F:  3295252----T:  3297857 	 St: c00f2000 Sz: 4096 	 Sm: 0 	 T: memcpy_h2d(1.758947)
F:  3297857----T:  3300462 	 St: c0101000 Sz: 4096 	 Sm: 0 	 T: memcpy_h2d(1.758947)
F:  3300462----T:  3303067 	 St: c00b3000 Sz: 4096 	 Sm: 0 	 T: memcpy_h2d(1.758947)
F:  3303067----T:  3305672 	 St: c00b7000 Sz: 4096 	 Sm: 0 	 T: memcpy_h2d(1.758947)
F:  3305672----T:  3308277 	 St: c00d0000 Sz: 4096 	 Sm: 0 	 T: memcpy_h2d(1.758947)
F:  3308277----T:  3310882 	 St: c00bd000 Sz: 4096 	 Sm: 0 	 T: memcpy_h2d(1.758947)
F:  3310882----T:  3313487 	 St: c00c7000 Sz: 4096 	 Sm: 0 	 T: memcpy_h2d(1.758947)
F:  3313487----T:  3316092 	 St: c00d2000 Sz: 4096 	 Sm: 0 	 T: memcpy_h2d(1.758947)
F:  3316092----T:  3318697 	 St: c00df000 Sz: 4096 	 Sm: 0 	 T: memcpy_h2d(1.758947)
F:  3318697----T:  3321302 	 St: c00b9000 Sz: 4096 	 Sm: 0 	 T: memcpy_h2d(1.758947)
F:  3321302----T:  3323907 	 St: c00dd000 Sz: 4096 	 Sm: 0 	 T: memcpy_h2d(1.758947)
F:  3323907----T:  3326512 	 St: c00fd000 Sz: 4096 	 Sm: 0 	 T: memcpy_h2d(1.758947)
F:  3326512----T:  3329117 	 St: c00b5000 Sz: 4096 	 Sm: 0 	 T: memcpy_h2d(1.758947)
F:  3329117----T:  3331722 	 St: c00e7000 Sz: 4096 	 Sm: 0 	 T: memcpy_h2d(1.758947)
F:  3331722----T:  3334327 	 St: c0102000 Sz: 4096 	 Sm: 0 	 T: memcpy_h2d(1.758947)
F:  3334327----T:  3336932 	 St: c00f5000 Sz: 4096 	 Sm: 0 	 T: memcpy_h2d(1.758947)
F:  3336932----T:  3339537 	 St: c00cb000 Sz: 4096 	 Sm: 0 	 T: memcpy_h2d(1.758947)
F:  3339537----T:  3342142 	 St: c00d9000 Sz: 4096 	 Sm: 0 	 T: memcpy_h2d(1.758947)
F:  3342142----T:  3344747 	 St: c00c4000 Sz: 4096 	 Sm: 0 	 T: memcpy_h2d(1.758947)
F:  3344747----T:  3347352 	 St: c00f6000 Sz: 4096 	 Sm: 0 	 T: memcpy_h2d(1.758947)
F:  3347352----T:  3349957 	 St: c010d000 Sz: 4096 	 Sm: 0 	 T: memcpy_h2d(1.758947)
F:  3349957----T:  3352562 	 St: c00f4000 Sz: 4096 	 Sm: 0 	 T: memcpy_h2d(1.758947)
F:  3352562----T:  3355167 	 St: c00eb000 Sz: 4096 	 Sm: 0 	 T: memcpy_h2d(1.758947)
F:  3355167----T:  3357772 	 St: c014b000 Sz: 4096 	 Sm: 0 	 T: memcpy_h2d(1.758947)
F:  3357772----T:  3360377 	 St: c010f000 Sz: 4096 	 Sm: 0 	 T: memcpy_h2d(1.758947)
F:  3360377----T:  3362982 	 St: c0145000 Sz: 4096 	 Sm: 0 	 T: memcpy_h2d(1.758947)
F:  3362982----T:  3365587 	 St: c0116000 Sz: 4096 	 Sm: 0 	 T: memcpy_h2d(1.758947)
F:  3365587----T:  3368192 	 St: c0148000 Sz: 4096 	 Sm: 0 	 T: memcpy_h2d(1.758947)
F:  3368192----T:  3370797 	 St: c0106000 Sz: 4096 	 Sm: 0 	 T: memcpy_h2d(1.758947)
F:  3370797----T:  3373402 	 St: c00ee000 Sz: 4096 	 Sm: 0 	 T: memcpy_h2d(1.758947)
F:  3373402----T:  3376007 	 St: c0125000 Sz: 4096 	 Sm: 0 	 T: memcpy_h2d(1.758947)
F:  3376007----T:  3378612 	 St: c0105000 Sz: 4096 	 Sm: 0 	 T: memcpy_h2d(1.758947)
F:  3378612----T:  3381217 	 St: c012a000 Sz: 4096 	 Sm: 0 	 T: memcpy_h2d(1.758947)
F:  3381217----T:  3383822 	 St: c0139000 Sz: 4096 	 Sm: 0 	 T: memcpy_h2d(1.758947)
F:  3383822----T:  3386427 	 St: c012f000 Sz: 4096 	 Sm: 0 	 T: memcpy_h2d(1.758947)
F:  3386427----T:  3389032 	 St: c014c000 Sz: 4096 	 Sm: 0 	 T: memcpy_h2d(1.758947)
F:  3389032----T:  3391637 	 St: c0115000 Sz: 4096 	 Sm: 0 	 T: memcpy_h2d(1.758947)
F:  3391637----T:  3394242 	 St: c0117000 Sz: 4096 	 Sm: 0 	 T: memcpy_h2d(1.758947)
F:  3394242----T:  3396847 	 St: c0112000 Sz: 4096 	 Sm: 0 	 T: memcpy_h2d(1.758947)
F:  3396847----T:  3399452 	 St: c011a000 Sz: 4096 	 Sm: 0 	 T: memcpy_h2d(1.758947)
F:  3399452----T:  3402057 	 St: c012c000 Sz: 4096 	 Sm: 0 	 T: memcpy_h2d(1.758947)
F:  3402057----T:  3404662 	 St: c0143000 Sz: 4096 	 Sm: 0 	 T: memcpy_h2d(1.758947)
F:  3404662----T:  3407267 	 St: c0136000 Sz: 4096 	 Sm: 0 	 T: memcpy_h2d(1.758947)
F:  3407267----T:  3409872 	 St: c018b000 Sz: 4096 	 Sm: 0 	 T: memcpy_h2d(1.758947)
F:  3409872----T:  3412477 	 St: c012d000 Sz: 4096 	 Sm: 0 	 T: memcpy_h2d(1.758947)
F:  3412477----T:  3415082 	 St: c0157000 Sz: 4096 	 Sm: 0 	 T: memcpy_h2d(1.758947)
F:  3415082----T:  3417687 	 St: c0197000 Sz: 4096 	 Sm: 0 	 T: memcpy_h2d(1.758947)
F:  3417687----T:  3420292 	 St: c0156000 Sz: 4096 	 Sm: 0 	 T: memcpy_h2d(1.758947)
F:  3420292----T:  3422897 	 St: c01a6000 Sz: 4096 	 Sm: 0 	 T: memcpy_h2d(1.758947)
F:  3422897----T:  3425502 	 St: c0150000 Sz: 4096 	 Sm: 0 	 T: memcpy_h2d(1.758947)
F:  3425502----T:  3428107 	 St: c0159000 Sz: 4096 	 Sm: 0 	 T: memcpy_h2d(1.758947)
F:  3428107----T:  3430712 	 St: c01a1000 Sz: 4096 	 Sm: 0 	 T: memcpy_h2d(1.758947)
F:  3430712----T:  3433317 	 St: c017e000 Sz: 4096 	 Sm: 0 	 T: memcpy_h2d(1.758947)
F:  3433317----T:  3435922 	 St: c018e000 Sz: 4096 	 Sm: 0 	 T: memcpy_h2d(1.758947)
F:  3435922----T:  3438527 	 St: c018d000 Sz: 4096 	 Sm: 0 	 T: memcpy_h2d(1.758947)
F:  3438527----T:  3441132 	 St: c016a000 Sz: 4096 	 Sm: 0 	 T: memcpy_h2d(1.758947)
F:  3441132----T:  3443737 	 St: c018f000 Sz: 4096 	 Sm: 0 	 T: memcpy_h2d(1.758947)
F:  3443737----T:  3446342 	 St: c0195000 Sz: 4096 	 Sm: 0 	 T: memcpy_h2d(1.758947)
F:  3446342----T:  3448947 	 St: c0179000 Sz: 4096 	 Sm: 0 	 T: memcpy_h2d(1.758947)
F:  3448947----T:  3451552 	 St: c0187000 Sz: 4096 	 Sm: 0 	 T: memcpy_h2d(1.758947)
F:  3451552----T:  3454157 	 St: c019a000 Sz: 4096 	 Sm: 0 	 T: memcpy_h2d(1.758947)
F:  3454157----T:  3456762 	 St: c015b000 Sz: 4096 	 Sm: 0 	 T: memcpy_h2d(1.758947)
F:  3456762----T:  3459367 	 St: c01ab000 Sz: 4096 	 Sm: 0 	 T: memcpy_h2d(1.758947)
F:  3459367----T:  3461972 	 St: c0172000 Sz: 4096 	 Sm: 0 	 T: memcpy_h2d(1.758947)
F:  3461972----T:  3464577 	 St: c015a000 Sz: 4096 	 Sm: 0 	 T: memcpy_h2d(1.758947)
F:  3464577----T:  3467182 	 St: c0169000 Sz: 4096 	 Sm: 0 	 T: memcpy_h2d(1.758947)
F:  3467182----T:  3469787 	 St: c0181000 Sz: 4096 	 Sm: 0 	 T: memcpy_h2d(1.758947)
F:  3469787----T:  3472392 	 St: c0186000 Sz: 4096 	 Sm: 0 	 T: memcpy_h2d(1.758947)
F:  3472392----T:  3474997 	 St: c01a8000 Sz: 4096 	 Sm: 0 	 T: memcpy_h2d(1.758947)
F:  3474997----T:  3477602 	 St: c01b8000 Sz: 4096 	 Sm: 0 	 T: memcpy_h2d(1.758947)
F:  3477602----T:  3480207 	 St: c01fc000 Sz: 4096 	 Sm: 0 	 T: memcpy_h2d(1.758947)
F:  3480207----T:  3482812 	 St: c01ba000 Sz: 4096 	 Sm: 0 	 T: memcpy_h2d(1.758947)
F:  3482812----T:  3485417 	 St: c01b1000 Sz: 4096 	 Sm: 0 	 T: memcpy_h2d(1.758947)
F:  3485417----T:  3488022 	 St: c01dc000 Sz: 4096 	 Sm: 0 	 T: memcpy_h2d(1.758947)
F:  3488022----T:  3490627 	 St: c01d9000 Sz: 4096 	 Sm: 0 	 T: memcpy_h2d(1.758947)
F:  3490627----T:  3493232 	 St: c01df000 Sz: 4096 	 Sm: 0 	 T: memcpy_h2d(1.758947)
F:  3493232----T:  3495837 	 St: c01c8000 Sz: 4096 	 Sm: 0 	 T: memcpy_h2d(1.758947)
F:  3495837----T:  3498442 	 St: c01c4000 Sz: 4096 	 Sm: 0 	 T: memcpy_h2d(1.758947)
F:  3498442----T:  3501047 	 St: c01bd000 Sz: 4096 	 Sm: 0 	 T: memcpy_h2d(1.758947)
F:  3501047----T:  3503652 	 St: c01e1000 Sz: 4096 	 Sm: 0 	 T: memcpy_h2d(1.758947)
F:  3503652----T:  3506257 	 St: c0176000 Sz: 4096 	 Sm: 0 	 T: memcpy_h2d(1.758947)
F:  3506257----T:  3508862 	 St: c015d000 Sz: 4096 	 Sm: 0 	 T: memcpy_h2d(1.758947)
F:  3508862----T:  3511467 	 St: c01e7000 Sz: 4096 	 Sm: 0 	 T: memcpy_h2d(1.758947)
F:  3511467----T:  3514072 	 St: c01f5000 Sz: 4096 	 Sm: 0 	 T: memcpy_h2d(1.758947)
F:  3514072----T:  3516677 	 St: c01c0000 Sz: 4096 	 Sm: 0 	 T: memcpy_h2d(1.758947)
F:  3516677----T:  3519282 	 St: c01d1000 Sz: 4096 	 Sm: 0 	 T: memcpy_h2d(1.758947)
F:  3519282----T:  3521887 	 St: c01cc000 Sz: 4096 	 Sm: 0 	 T: memcpy_h2d(1.758947)
F:  3521887----T:  3524492 	 St: c01d5000 Sz: 4096 	 Sm: 0 	 T: memcpy_h2d(1.758947)
F:  3524492----T:  3527097 	 St: c01f8000 Sz: 4096 	 Sm: 0 	 T: memcpy_h2d(1.758947)
F:  3527097----T:  3529702 	 St: c01c9000 Sz: 4096 	 Sm: 0 	 T: memcpy_h2d(1.758947)
F:  3529702----T:  3532307 	 St: c01d8000 Sz: 4096 	 Sm: 0 	 T: memcpy_h2d(1.758947)
F:  3532307----T:  3534912 	 St: c01cf000 Sz: 4096 	 Sm: 0 	 T: memcpy_h2d(1.758947)
F:  3534912----T:  3537517 	 St: c01ae000 Sz: 4096 	 Sm: 0 	 T: memcpy_h2d(1.758947)
F:  3537517----T:  3540122 	 St: c01d6000 Sz: 4096 	 Sm: 0 	 T: memcpy_h2d(1.758947)
F:  3540122----T:  3542727 	 St: c01f1000 Sz: 4096 	 Sm: 0 	 T: memcpy_h2d(1.758947)
F:  3542727----T:  3545332 	 St: c00e1000 Sz: 4096 	 Sm: 0 	 T: memcpy_h2d(1.758947)
F:  3545332----T:  3547937 	 St: c00e0000 Sz: 4096 	 Sm: 0 	 T: memcpy_h2d(1.758947)
F:  3547937----T:  3550542 	 St: c00f8000 Sz: 4096 	 Sm: 0 	 T: memcpy_h2d(1.758947)
F:  3550542----T:  3553147 	 St: c00f9000 Sz: 4096 	 Sm: 0 	 T: memcpy_h2d(1.758947)
F:  3553147----T:  3555752 	 St: c0202000 Sz: 4096 	 Sm: 0 	 T: memcpy_h2d(1.758947)
F:  3555752----T:  3558357 	 St: c0205000 Sz: 4096 	 Sm: 0 	 T: memcpy_h2d(1.758947)
F:  3558357----T:  3560962 	 St: c0206000 Sz: 4096 	 Sm: 0 	 T: memcpy_h2d(1.758947)
F:  3560962----T:  3563567 	 St: c0209000 Sz: 4096 	 Sm: 0 	 T: memcpy_h2d(1.758947)
F:  3563567----T:  3566172 	 St: c0208000 Sz: 4096 	 Sm: 0 	 T: memcpy_h2d(1.758947)
F:  3566172----T:  3568777 	 St: c020b000 Sz: 4096 	 Sm: 0 	 T: memcpy_h2d(1.758947)
F:  3568777----T:  3571382 	 St: c020f000 Sz: 4096 	 Sm: 0 	 T: memcpy_h2d(1.758947)
F:  3571382----T:  3573987 	 St: c020d000 Sz: 4096 	 Sm: 0 	 T: memcpy_h2d(1.758947)
F:  3573987----T:  3576592 	 St: c0137000 Sz: 4096 	 Sm: 0 	 T: memcpy_h2d(1.758947)
F:  3576592----T:  3579197 	 St: c007a000 Sz: 4096 	 Sm: 0 	 T: memcpy_h2d(1.758947)
F:  3579197----T:  3581802 	 St: c0138000 Sz: 4096 	 Sm: 0 	 T: memcpy_h2d(1.758947)
F:  3581802----T:  3584407 	 St: c0219000 Sz: 4096 	 Sm: 0 	 T: memcpy_h2d(1.758947)
F:  3584407----T:  3587012 	 St: c0214000 Sz: 4096 	 Sm: 0 	 T: memcpy_h2d(1.758947)
F:  3587012----T:  3589617 	 St: c0224000 Sz: 4096 	 Sm: 0 	 T: memcpy_h2d(1.758947)
F:  3589617----T:  3592222 	 St: c0226000 Sz: 4096 	 Sm: 0 	 T: memcpy_h2d(1.758947)
F:  3592222----T:  3594827 	 St: c022a000 Sz: 4096 	 Sm: 0 	 T: memcpy_h2d(1.758947)
F:  3594827----T:  3597432 	 St: c0113000 Sz: 4096 	 Sm: 0 	 T: memcpy_h2d(1.758947)
F:  3597432----T:  3600037 	 St: c0114000 Sz: 4096 	 Sm: 0 	 T: memcpy_h2d(1.758947)
F:  3600037----T:  3602642 	 St: c022d000 Sz: 4096 	 Sm: 0 	 T: memcpy_h2d(1.758947)
F:  3602642----T:  3605247 	 St: c022f000 Sz: 4096 	 Sm: 0 	 T: memcpy_h2d(1.758947)
F:  3605247----T:  3607852 	 St: c0123000 Sz: 4096 	 Sm: 0 	 T: memcpy_h2d(1.758947)
F:  3607852----T:  3610457 	 St: c0124000 Sz: 4096 	 Sm: 0 	 T: memcpy_h2d(1.758947)
F:  3610457----T:  3613062 	 St: c0122000 Sz: 4096 	 Sm: 0 	 T: memcpy_h2d(1.758947)
F:  3613062----T:  3615667 	 St: c016d000 Sz: 4096 	 Sm: 0 	 T: memcpy_h2d(1.758947)
F:  3615667----T:  3618272 	 St: c016e000 Sz: 4096 	 Sm: 0 	 T: memcpy_h2d(1.758947)
F:  3618272----T:  3620877 	 St: c016f000 Sz: 4096 	 Sm: 0 	 T: memcpy_h2d(1.758947)
F:  3620877----T:  3623482 	 St: c0177000 Sz: 4096 	 Sm: 0 	 T: memcpy_h2d(1.758947)
F:  3623482----T:  3626087 	 St: c0178000 Sz: 4096 	 Sm: 0 	 T: memcpy_h2d(1.758947)
F:  3626087----T:  3628692 	 St: c0163000 Sz: 4096 	 Sm: 0 	 T: memcpy_h2d(1.758947)
F:  3628692----T:  3631297 	 St: c0162000 Sz: 4096 	 Sm: 0 	 T: memcpy_h2d(1.758947)
F:  3631297----T:  3633902 	 St: c0161000 Sz: 4096 	 Sm: 0 	 T: memcpy_h2d(1.758947)
F:  3633902----T:  3636507 	 St: c0164000 Sz: 4096 	 Sm: 0 	 T: memcpy_h2d(1.758947)
F:  3636507----T:  3639112 	 St: c0165000 Sz: 4096 	 Sm: 0 	 T: memcpy_h2d(1.758947)
F:  3639112----T:  3641717 	 St: c0166000 Sz: 4096 	 Sm: 0 	 T: memcpy_h2d(1.758947)
F:  3641717----T:  3644322 	 St: c0188000 Sz: 4096 	 Sm: 0 	 T: memcpy_h2d(1.758947)
F:  3644322----T:  3646927 	 St: c0189000 Sz: 4096 	 Sm: 0 	 T: memcpy_h2d(1.758947)
F:  3646927----T:  3649532 	 St: c018a000 Sz: 4096 	 Sm: 0 	 T: memcpy_h2d(1.758947)
F:  3649532----T:  3652137 	 St: c01c6000 Sz: 4096 	 Sm: 0 	 T: memcpy_h2d(1.758947)
F:  3652137----T:  3654742 	 St: c01c5000 Sz: 4096 	 Sm: 0 	 T: memcpy_h2d(1.758947)
F:  3654742----T:  3657347 	 St: c01b6000 Sz: 4096 	 Sm: 0 	 T: memcpy_h2d(1.758947)
F:  3657347----T:  3659952 	 St: c01b7000 Sz: 4096 	 Sm: 0 	 T: memcpy_h2d(1.758947)
F:  3659952----T:  3662557 	 St: c01f2000 Sz: 4096 	 Sm: 0 	 T: memcpy_h2d(1.758947)
F:  3662557----T:  3665162 	 St: c01f3000 Sz: 4096 	 Sm: 0 	 T: memcpy_h2d(1.758947)
F:  3665162----T:  3667767 	 St: c021f000 Sz: 4096 	 Sm: 0 	 T: memcpy_h2d(1.758947)
F:  3667767----T:  3670372 	 St: c0220000 Sz: 4096 	 Sm: 0 	 T: memcpy_h2d(1.758947)
F:  3896801----T:  3901134 	 	 	 Kl: 10 	 Sm: 0 	 T: kernel_launch(2.925726)
F:  3901134----T:  3903669 	 St: 80000000 Sz: 1 	 Sm: 0 	 T: memcpy_d2h(1.711681)
F:  3903670----T:  3906205 	 St: 80000000 Sz: 1 	 Sm: 0 	 T: memcpy_h2d(1.711681)
F:  4128356----T:  4185372 	 	 	 Kl: 11 	 Sm: 0 	 T: kernel_launch(38.498310)
F:  4407522----T:  4411872 	 	 	 Kl: 12 	 Sm: 0 	 T: kernel_launch(2.937205)
F:  4411872----T:  4414407 	 St: 80000000 Sz: 1 	 Sm: 0 	 T: memcpy_d2h(1.711681)
F:  4414408----T:  4416943 	 St: 80000000 Sz: 1 	 Sm: 0 	 T: memcpy_h2d(1.711681)
F:  4639094----T:  4726938 	 	 	 Kl: 13 	 Sm: 0 	 T: kernel_launch(59.313976)
F:  4949088----T:  4953392 	 	 	 Kl: 14 	 Sm: 0 	 T: kernel_launch(2.906144)
F:  4953392----T:  4955927 	 St: 80000000 Sz: 1 	 Sm: 0 	 T: memcpy_d2h(1.711681)
F:  4955928----T:  4958463 	 St: 80000000 Sz: 1 	 Sm: 0 	 T: memcpy_h2d(1.711681)
F:  5180614----T:  5214638 	 	 	 Kl: 15 	 Sm: 0 	 T: kernel_launch(22.973667)
F:  5436788----T:  5438926 	 	 	 Kl: 16 	 Sm: 0 	 T: kernel_launch(1.443619)
F:  5438926----T:  5441461 	 St: 80000000 Sz: 1 	 Sm: 0 	 T: memcpy_d2h(1.711681)
F:  5441462----T:  5443997 	 St: 80000000 Sz: 1 	 Sm: 0 	 T: memcpy_h2d(1.711681)
F:  5666148----T:  5671477 	 	 	 Kl: 17 	 Sm: 0 	 T: kernel_launch(3.598244)
F:  5893627----T:  5894718 	 	 	 Kl: 18 	 Sm: 0 	 T: kernel_launch(0.736664)
F:  5894718----T:  5897253 	 St: 80000000 Sz: 1 	 Sm: 0 	 T: memcpy_d2h(1.711681)
F:  5897254----T:  5899789 	 St: 80000000 Sz: 1 	 Sm: 0 	 T: memcpy_h2d(1.711681)
F:  6121940----T:  6124162 	 	 	 Kl: 19 	 Sm: 0 	 T: kernel_launch(1.500338)
F:  6346312----T:  6347276 	 	 	 Kl: 20 	 Sm: 0 	 T: kernel_launch(0.650912)
F:  6347276----T:  6349811 	 St: 80000000 Sz: 1 	 Sm: 0 	 T: memcpy_d2h(1.711681)
F:  6349812----T:  6352417 	 St: 0 Sz: 4096 	 Sm: 0 	 T: device_sync(1.758947)
F:  6349812----T:  6358052 	 St: 0 Sz: 61440 	 Sm: 0 	 T: device_sync(5.563808)
F:  6360657----T:  6363262 	 St: 0 Sz: 4096 	 Sm: 0 	 T: device_sync(1.758947)
F:  6360657----T:  6368897 	 St: 0 Sz: 61440 	 Sm: 0 	 T: device_sync(5.563808)
F:  6371502----T:  6374107 	 St: 0 Sz: 4096 	 Sm: 0 	 T: device_sync(1.758947)
F:  6371502----T:  6387197 	 St: 0 Sz: 126976 	 Sm: 0 	 T: device_sync(10.597569)
F:  6389802----T:  6392407 	 St: 0 Sz: 4096 	 Sm: 0 	 T: device_sync(1.758947)
F:  6389802----T:  6413005 	 St: 0 Sz: 192512 	 Sm: 0 	 T: device_sync(15.667117)
Tot_prefetch_time: 0(cycle), 0.000000(us)
Tot_kernel_exec_time: 1856092(cycle), 1253.269409(us)
Tot_kernel_exec_time_and_fault_time: 43442572(cycle), 29333.269531(us)
Tot_memcpy_h2d_time: 1650870(cycle), 1114.699585(us)
Tot_memcpy_d2h_time: 25350(cycle), 17.116814(us)
Tot_memcpy_time: 1676220(cycle), 1131.816284(us)
Tot_devicesync_time: 65798(cycle), 44.428089(us)
Tot_writeback_time: 0(cycle), 0.000000(us)
Tot_rdma_time: 0(cycle), 0.000000(us)
Tot_memcpy_d2h_sync_wb_time: 91148(cycle), 61.544903(us)
GPGPU-Sim: *** exit detected ***
