

        *** GPGPU-Sim Simulator Version 3.2.2  [build gpgpu-sim_git-commit-3860d9b353b66e89e1a9ca14f6569fffcf247a15_modified_0] ***


GPGPU-Sim PTX: simulation mode 0 (can change with PTX_SIM_MODE_FUNC environment variable:
               1=functional simulation only, 0=detailed performance simulator)
GPGPU-Sim: Configuration options:

-network_mode                           1 # Interconnection network mode
-inter_config_file   config_fermi_islip.icnt # Interconnection network config file
-gpgpu_ptx_use_cuobjdump                    1 # Use cuobjdump to extract ptx and sass from binaries
-gpgpu_experimental_lib_support                    0 # Try to extract code from cuda libraries [Broken because of unknown cudaGetExportTable]
-gpgpu_ptx_convert_to_ptxplus                    0 # Convert SASS (native ISA) to ptxplus and run ptxplus
-gpgpu_ptx_force_max_capability                   20 # Force maximum compute capability
-gpgpu_ptx_inst_debug_to_file                    0 # Dump executed instructions' debug information to file
-gpgpu_ptx_inst_debug_file       inst_debug.txt # Executed instructions' debug output file
-gpgpu_ptx_inst_debug_thread_uid                    1 # Thread UID for executed instructions' debug output
-gpgpu_simd_model                       1 # 1 = post-dominator
-gpgpu_shader_core_pipeline              2048:32 # shader core pipeline config, i.e., {<nthread>:<warpsize>}
-gpgpu_tex_cache:l1  16:128:24,L:R:m:N:L,F:128:4,128:2 # per-shader L1 texture cache  (READ-ONLY) config  {<nsets>:<bsize>:<assoc>,<rep>:<wr>:<alloc>:<wr_alloc>,<mshr>:<N>:<merge>,<mq>:<rf>}
-gpgpu_const_cache:l1 128:64:2,L:R:f:N:L,A:2:64,4 # per-shader L1 constant memory cache  (READ-ONLY) config  {<nsets>:<bsize>:<assoc>,<rep>:<wr>:<alloc>:<wr_alloc>,<mshr>:<N>:<merge>,<mq>} 
-gpgpu_cache:il1     8:128:4,L:R:f:N:L,A:2:48,4 # shader L1 instruction cache config  {<nsets>:<bsize>:<assoc>,<rep>:<wr>:<alloc>:<wr_alloc>,<mshr>:<N>:<merge>,<mq>} 
-gpgpu_cache:dl1     64:128:6,L:L:m:N:H,A:128:8,8 # per-shader L1 data cache config  {<nsets>:<bsize>:<assoc>,<rep>:<wr>:<alloc>:<wr_alloc>,<mshr>:<N>:<merge>,<mq> | none}
-gpgpu_cache:dl1PrefL1                 none # per-shader L1 data cache config  {<nsets>:<bsize>:<assoc>,<rep>:<wr>:<alloc>:<wr_alloc>,<mshr>:<N>:<merge>,<mq> | none}
-gpgpu_cache:dl1PrefShared                 none # per-shader L1 data cache config  {<nsets>:<bsize>:<assoc>,<rep>:<wr>:<alloc>:<wr_alloc>,<mshr>:<N>:<merge>,<mq> | none}
-gmem_skip_L1D                          1 # global memory access skip L1D cache (implements -Xptxas -dlcm=cg, default=no skip)
-gpgpu_perfect_mem                      0 # enable perfect memory mode (no cache miss)
-n_regfile_gating_group                    4 # group of lanes that should be read/written together)
-gpgpu_clock_gated_reg_file                    0 # enable clock gated reg file for power calculations
-gpgpu_clock_gated_lanes                    0 # enable clock gated lanes for power calculations
-gpgpu_shader_registers                65536 # Number of registers per shader core. Limits number of concurrent CTAs. (default 8192)
-gpgpu_shader_cta                      32 # Maximum number of concurrent CTAs in shader (default 8)
-gpgpu_num_cta_barriers                   16 # Maximum number of named barriers per CTA (default 16)
-gpgpu_n_clusters                      28 # number of processing clusters
-gpgpu_n_cores_per_cluster                    1 # number of simd cores per cluster
-gpgpu_n_cluster_ejection_buffer_size                    8 # number of packets in ejection buffer
-gpgpu_n_ldst_response_buffer_size                    2 # number of response packets in ld/st unit ejection buffer
-gpgpu_shmem_size                   16384 # Size of shared memory per shader core (default 16kB)
-gpgpu_shmem_size                   98304 # Size of shared memory per shader core (default 16kB)
-gpgpu_shmem_size_PrefL1                16384 # Size of shared memory per shader core (default 16kB)
-gpgpu_shmem_size_PrefShared                16384 # Size of shared memory per shader core (default 16kB)
-gpgpu_shmem_num_banks                   32 # Number of banks in the shared memory in each shader core (default 16)
-gpgpu_shmem_limited_broadcast                    0 # Limit shared memory to do one broadcast per cycle (default on)
-gpgpu_shmem_warp_parts                    1 # Number of portions a warp is divided into for shared memory bank conflict check 
-gpgpu_warpdistro_shader                   -1 # Specify which shader core to collect the warp size distribution from
-gpgpu_warp_issue_shader                    0 # Specify which shader core to collect the warp issue distribution from
-gpgpu_local_mem_map                    1 # Mapping from local memory space address to simulated GPU physical address space (default = enabled)
-gpgpu_num_reg_banks                   32 # Number of register banks (default = 8)
-gpgpu_reg_bank_use_warp_id                    0 # Use warp ID in mapping registers to banks (default = off)
-gpgpu_operand_collector_num_units_sp                   20 # number of collector units (default = 4)
-gpgpu_operand_collector_num_units_sfu                    4 # number of collector units (default = 4)
-gpgpu_operand_collector_num_units_mem                    8 # number of collector units (default = 2)
-gpgpu_operand_collector_num_units_gen                    0 # number of collector units (default = 0)
-gpgpu_operand_collector_num_in_ports_sp                    4 # number of collector unit in ports (default = 1)
-gpgpu_operand_collector_num_in_ports_sfu                    1 # number of collector unit in ports (default = 1)
-gpgpu_operand_collector_num_in_ports_mem                    1 # number of collector unit in ports (default = 1)
-gpgpu_operand_collector_num_in_ports_gen                    0 # number of collector unit in ports (default = 0)
-gpgpu_operand_collector_num_out_ports_sp                    4 # number of collector unit in ports (default = 1)
-gpgpu_operand_collector_num_out_ports_sfu                    1 # number of collector unit in ports (default = 1)
-gpgpu_operand_collector_num_out_ports_mem                    1 # number of collector unit in ports (default = 1)
-gpgpu_operand_collector_num_out_ports_gen                    0 # number of collector unit in ports (default = 0)
-gpgpu_coalesce_arch                   13 # Coalescing arch (default = 13, anything else is off for now)
-gpgpu_num_sched_per_core                    2 # Number of warp schedulers per core
-gpgpu_max_insn_issue_per_warp                    2 # Max number of instructions that can be issued per warp in one cycle by scheduler
-gpgpu_simt_core_sim_order                    1 # Select the simulation order of cores in a cluster (0=Fix, 1=Round-Robin)
-gpgpu_pipeline_widths        4,1,1,4,1,1,6 # Pipeline widths ID_OC_SP,ID_OC_SFU,ID_OC_MEM,OC_EX_SP,OC_EX_SFU,OC_EX_MEM,EX_WB
-gpgpu_num_sp_units                     4 # Number of SP units (default=1)
-gpgpu_num_sfu_units                    1 # Number of SF units (default=1)
-gpgpu_num_mem_units                    1 # Number if ldst units (default=1) WARNING: not hooked up to anything
-gpgpu_scheduler                      gto # Scheduler configuration: < lrr | gto | two_level_active > If two_level_active:<num_active_warps>:<inner_prioritization>:<outer_prioritization>For complete list of prioritization values see shader.h enum scheduler_prioritization_typeDefault: gto
-gpgpu_concurrent_kernel_sm                    0 # Support concurrent kernels on a SM (default = disabled)
-tlb_size                            4096 # Number of tlb entries per SM.
-gpgpu_dram_scheduler                    1 # 0 = fifo, 1 = FR-FCFS (defaul)
-gpgpu_dram_partition_queues              8:8:8:8 # i2$:$2d:d2$:$2i
-l2_ideal                               0 # Use a ideal L2 cache that always hit
-gpgpu_cache:dl2     64:128:16,L:B:m:W:L,A:1024:1024,4:0,32 # unified banked L2 data cache config  {<nsets>:<bsize>:<assoc>,<rep>:<wr>:<alloc>:<wr_alloc>,<mshr>:<N>:<merge>,<mq>}
-gpgpu_cache:dl2_texture_only                    0 # L2 cache used for texture only
-gpgpu_n_mem                           11 # number of memory modules (e.g. memory controllers) in gpu
-gpgpu_n_sub_partition_per_mchannel                    2 # number of memory subpartition in each memory module
-gpgpu_n_mem_per_ctrlr                    1 # number of memory chips per memory controller
-gpgpu_memlatency_stat                   14 # track and display latency statistics 0x2 enables MC, 0x4 enables queue logs
-gpgpu_frfcfs_dram_sched_queue_size                   64 # 0 = unlimited (default); # entries per chip
-gpgpu_dram_return_queue_size                  116 # 0 = unlimited (default); # entries per chip
-gpgpu_dram_buswidth                    4 # default = 4 bytes (8 bytes per cycle at DDR)
-gpgpu_dram_burst_length                    8 # Burst length of each DRAM request (default = 4 data bus cycle)
-dram_data_command_freq_ratio                    4 # Frequency ratio between DRAM data bus and command bus (default = 2 times, i.e. DDR)
-gpgpu_dram_timing_opt nbk=16:CCD=2:RRD=6:RCD=12:RAS=28:RP=12:RC=40: CL=12:WL=4:CDLR=5:WR=12:nbkgrp=1:CCDL=0:RTPL=0 # DRAM timing parameters = {nbk:tCCD:tRRD:tRCD:tRAS:tRP:tRC:CL:WL:tCDLR:tWR:nbkgrp:tCCDL:tRTPL}
-rop_latency                          120 # ROP queue latency (default 85)
-dram_latency                         100 # DRAM latency (default 30)
-gpgpu_mem_addr_mapping dramid@8;00000000.00000000.00000000.00000000.0000RRRR.RRRRRRRR.RBBBCCCC.BCCSSSSS # mapping memory address to dram model {dramid@<start bit>;<memory address map>}
-gpgpu_mem_addr_test                    0 # run sweep test to check address mapping for aliased address
-gpgpu_mem_address_mask                    1 # 0 = old addressing mask, 1 = new addressing mask, 2 = new add. mask + flipped bank sel and chip sel bits
-gpuwattch_xml_file  gpuwattch_geforcegtx1080ti.xml # GPUWattch XML file
-power_simulation_enabled                    1 # Turn on power simulator (1=On, 0=Off)
-power_per_cycle_dump                    0 # Dump detailed power output each cycle
-power_trace_enabled                    0 # produce a file for the power trace (1=On, 0=Off)
-power_trace_zlevel                     6 # Compression level of the power trace output log (0=no comp, 9=highest)
-steady_power_levels_enabled                    0 # produce a file for the steady power levels (1=On, 0=Off)
-steady_state_definition                  8:4 # allowed deviation:number of samples
-gpgpu_max_cycle                        0 # terminates gpu simulation early (0 = no limit)
-gpgpu_max_insn                         0 # terminates gpu simulation early (0 = no limit)
-gpgpu_max_cta                          0 # terminates gpu simulation early (0 = no limit)
-gpgpu_runtime_stat                   500 # display runtime statistics such as dram utilization {<freq>:<flag>}
-liveness_message_freq                    1 # Minimum number of seconds between simulation liveness messages (0 = always print)
-gpgpu_flush_l1_cache                    0 # Flush L1 cache at the end of each kernel call
-gpgpu_flush_l2_cache                    0 # Flush L2 cache at the end of each kernel call
-gpgpu_deadlock_detect                    0 # Stop the simulation at deadlock (1=on (default), 0=off)
-gpgpu_ptx_instruction_classification                    0 # if enabled will classify ptx instruction types per kernel (Max 255 kernels now)
-gpgpu_ptx_sim_mode                     0 # Select between Performance (default) or Functional simulation (1)
-gpgpu_clock_domains 1481.0:2962.0:1481.0:2750.0 # Clock Domain Frequencies in MhZ {<Core Clock>:<ICNT Clock>:<L2 Clock>:<DRAM Clock>}
-gpgpu_max_concurrent_kernel                    8 # maximum kernels that can run concurrently on GPU
-gpgpu_cflog_interval                    0 # Interval between each snapshot in control flow logger
-visualizer_enabled                     0 # Turn on visualizer output (1=On, 0=Off)
-visualizer_outputfile                 NULL # Specifies the output log file for visualizer
-visualizer_zlevel                      6 # Compression level of the visualizer output log (0=no comp, 9=highest)
-trace_enabled                          0 # Turn on traces
-trace_components                    none # comma seperated list of traces to enable. Complete list found in trace_streams.tup. Default none
-trace_sampling_core                    0 # The core which is printed using CORE_DPRINTF. Default 0
-trace_sampling_memory_partition                   -1 # The memory partition which is printed using MEMPART_DPRINTF. Default -1 (i.e. all)
-gddr_size                            1GB # Size of GDDR in MB/GB.(GLOBAL_HEAP_START, GLOBAL_HEAP_START + gddr_size) would be used for unmanged memory, (GLOBAL_HEAP_START + gddr_size, GLOBAL_HEAP_START + gddr_size*2) would be used for managed memory. 
-page_table_walk_latency                  100 # Average page table walk latency (in core cycle).
-eviction_policy                        0 # Select page eviction policy
-reserve_accessed_page_percent                    0 # Percentage of accessed pages reserved from eviction in hope that they will be accessed in next iteration.
-percentage_of_free_page_buffer                    0 # Percentage of free page buffer to trigger the page eviction.
-page_size                            4KB # GDDR page size, only 4KB/2MB avaliable.
-pcie_bandwith                   16.0GB/s # PCI-e bandwith per direction, in GB/s.
-enable_nvlink                          0 # Enable nvlink 2.0, 150.0GB/s
-enable_rdma                            0 # Enable remote direct memory access
-migrate_threshold                     10 # Access counter threshold for migrating the page from cpu to gpu
-sim_prof_enable                        1 # Enable gpgpu-sim profiler
-hardware_prefetch                      0 # Select gpgpu-sim hardware prefetcher
-hwprefetch_oversub                     0 # Select gpgpu-sim hardware prefetcher under over-subscription
-page_fault_latency                 66645 # Average fault latency (in core cycle).
-enable_accurate_simulation                    0 # Enable page fault functional simulation.
-enable_ptx_file_line_stats                    1 # Turn on PTX source line statistic profiling. (1 = On)
-ptx_line_stats_filename gpgpu_inst_stats.txt # Output file for PTX source line statistics.
-gpgpu_kernel_launch_latency               222150 # Kernel launch latency in cycles. Default: 0
-gpgpu_cdp_enabled                      0 # Turn on CDP
-save_embedded_ptx                      0 # saves ptx files embedded in binary as <n>.ptx
-keep                                   0 # keep intermediate files created by GPGPU-Sim when interfacing with external programs
-gpgpu_ptx_save_converted_ptxplus                    0 # Saved converted ptxplus to a file
-ptx_opcode_latency_int         4,13,4,5,145 # Opcode latencies for integers <ADD,MAX,MUL,MAD,DIV>Default 1,1,19,25,145
-ptx_opcode_latency_fp          4,13,4,5,39 # Opcode latencies for single precision floating points <ADD,MAX,MUL,MAD,DIV>Default 1,1,1,1,30
-ptx_opcode_latency_dp         8,19,8,8,330 # Opcode latencies for double precision floating points <ADD,MAX,MUL,MAD,DIV>Default 8,8,8,8,335
-ptx_opcode_initiation_int            1,2,2,2,8 # Opcode initiation intervals for integers <ADD,MAX,MUL,MAD,DIV>Default 1,1,4,4,32
-ptx_opcode_initiation_fp            1,2,1,1,4 # Opcode initiation intervals for single precision floating points <ADD,MAX,MUL,MAD,DIV>Default 1,1,1,1,5
-ptx_opcode_initiation_dp          1,2,1,1,130 # Opcode initiation intervals for double precision floating points <ADD,MAX,MUL,MAD,DIV>Default 8,8,8,8,130
-cdp_latency         7200,8000,100,12000,1600 # CDP API latency <cudaStreamCreateWithFlags, cudaGetParameterBufferV2_init_perWarp, cudaGetParameterBufferV2_perKernel, cudaLaunchDeviceV2_init_perWarp, cudaLaunchDevicV2_perKernel>Default 7200,8000,100,12000,1600
DRAM Timing Options:
nbk                                    16 # number of banks
CCD                                     2 # column to column delay
RRD                                     6 # minimal delay between activation of rows in different banks
RCD                                    12 # row to column delay
RAS                                    28 # time needed to activate row
RP                                     12 # time needed to precharge (deactivate) row
RC                                     40 # row cycle time
CDLR                                    5 # switching from write to read (changes tWTR)
WR                                     12 # last data-in to row precharge
CL                                     12 # CAS latency
WL                                      4 # Write latency
nbkgrp                                  1 # number of bank groups
CCDL                                    0 # column to column delay between accesses to different bank groups
RTPL                                    0 # read to precharge delay between accesses to different bank groups
Total number of memory sub partition = 22
addr_dec_mask[CHIP]  = 0000000000000000 	high:64 low:0
addr_dec_mask[BK]    = 0000000000007080 	high:15 low:7
addr_dec_mask[ROW]   = 000000000fff8000 	high:28 low:15
addr_dec_mask[COL]   = 0000000000000f7f 	high:12 low:0
addr_dec_mask[BURST] = 000000000000001f 	high:5 low:0
sub_partition_id_mask = 0000000000000080
GPGPU-Sim uArch: clock freqs: 1481000000.000000:2962000000.000000:1481000000.000000:2750000000.000000
GPGPU-Sim uArch: clock periods: 0.00000000067521944632:0.00000000033760972316:0.00000000067521944632:0.00000000036363636364
*** Initializing Memory Statistics ***
GPGPU-Sim uArch: interconnect node map (shaderID+MemID to icntID)
GPGPU-Sim uArch: Memory nodes ID start from index: 28
GPGPU-Sim uArch:    0   1   2   3   4   5   6
GPGPU-Sim uArch:    7   8   9  10  11  12  13
GPGPU-Sim uArch:   14  15  16  17  18  19  20
GPGPU-Sim uArch:   21  22  23  24  25  26  27
GPGPU-Sim uArch:   28  29  30  31  32  33  34
GPGPU-Sim uArch:   35  36  37  38  39  40  41
GPGPU-Sim uArch:   42  43  44  45  46  47  48
GPGPU-Sim uArch:   49
GPGPU-Sim uArch: interconnect node reverse map (icntID to shaderID+MemID)
GPGPU-Sim uArch: Memory nodes start from ID: 28
GPGPU-Sim uArch:    0   1   2   3   4   5   6
GPGPU-Sim uArch:    7   8   9  10  11  12  13
GPGPU-Sim uArch:   14  15  16  17  18  19  20
GPGPU-Sim uArch:   21  22  23  24  25  26  27
GPGPU-Sim uArch:   28  29  30  31  32  33  34
GPGPU-Sim uArch:   35  36  37  38  39  40  41
GPGPU-Sim uArch:   42  43  44  45  46  47  48
GPGPU-Sim uArch:   49
37faa8f6e9b7e9781cb356ae4b508dbd  /home/gpuser/Desktop/gpgpu-sim_UVMSmart/benchmarks/Managed/hotspot/hotspot
GPGPU-Sim uArch: performance model initialization complete.
GPGPU-Sim PTX: __cudaRegisterFatBinary, fat_cubin_handle = 1, filename=default
self exe links to: /home/gpuser/Desktop/gpgpu-sim_UVMSmart/benchmarks/Managed/hotspot/hotspot
Running md5sum using "md5sum /home/gpuser/Desktop/gpgpu-sim_UVMSmart/benchmarks/Managed/hotspot/hotspot "
Parsing file _cuobjdump_complete_output_2cuOgC
######### cuobjdump parser ########
## Adding new section ELF
Adding arch: sm_20
Adding identifier: default
## Adding new section ELF
Adding arch: sm_20
Adding identifier: default
## Adding new section PTX
Adding ptx filename: _cuobjdump_1.ptx
Adding arch: sm_20
Adding identifier: default
Done parsing!!!
GPGPU-Sim PTX: __cudaRegisterFunction _Z14calculate_tempiPfS_S_iiiiffffff : hostFun 0x0x401ae2, fat_cubin_handle = 1
GPGPU-Sim PTX: allocating shared region for "_Z14calculate_tempiPfS_S_iiiiffffff$__cuda_local_var_16165_39_non_const_temp_on_cuda" from 0x0 to 0x400 (shared memory space)
GPGPU-Sim PTX: allocating shared region for "_Z14calculate_tempiPfS_S_iiiiffffff$__cuda_local_var_16166_39_non_const_power_on_cuda" from 0x400 to 0x800 (shared memory space)
GPGPU-Sim PTX: allocating shared region for "_Z14calculate_tempiPfS_S_iiiiffffff$__cuda_local_var_16167_39_non_const_temp_t" from 0x800 to 0xc00 (shared memory space)
GPGPU-Sim PTX: instruction assembly for function '_Z14calculate_tempiPfS_S_iiiiffffff'...   done.
GPGPU-Sim PTX: finding reconvergence points for '_Z14calculate_tempiPfS_S_iiiiffffff'...
GPGPU-Sim PTX: Finding dominators for '_Z14calculate_tempiPfS_S_iiiiffffff'...
GPGPU-Sim PTX: Finding immediate dominators for '_Z14calculate_tempiPfS_S_iiiiffffff'...
GPGPU-Sim PTX: Finding postdominators for '_Z14calculate_tempiPfS_S_iiiiffffff'...
GPGPU-Sim PTX: Finding immediate postdominators for '_Z14calculate_tempiPfS_S_iiiiffffff'...
GPGPU-Sim PTX: pre-decoding instructions for '_Z14calculate_tempiPfS_S_iiiiffffff'...
GPGPU-Sim PTX: reconvergence points for _Z14calculate_tempiPfS_S_iiiiffffff...
GPGPU-Sim PTX:  1 (potential) branch divergence @  PC=0x118 (_1.ptx:82) @!%p7 bra BB0_2;
GPGPU-Sim PTX:    immediate post dominator      @  PC=0x1b8 (_1.ptx:106) bar.sync 0;
GPGPU-Sim PTX:  2 (potential) branch divergence @  PC=0x120 (_1.ptx:83) bra.uni BB0_1;
GPGPU-Sim PTX:    immediate post dominator      @  PC=0x128 (_1.ptx:86) mad.lo.s32 %r27, %r1, %r10, %r2;
GPGPU-Sim PTX:  3 (potential) branch divergence @  PC=0x1c8 (_1.ptx:108) @%p8 bra BB0_11;
GPGPU-Sim PTX:    immediate post dominator      @  PC=0x5b0 (_1.ptx:247) and.b16 %rs7, %rs8, 255;
GPGPU-Sim PTX:  4 (potential) branch divergence @  PC=0x338 (_1.ptx:157) @!%p15 bra BB0_7;
GPGPU-Sim PTX:    immediate post dominator      @  PC=0x538 (_1.ptx:226) bar.sync 0;
GPGPU-Sim PTX:  5 (potential) branch divergence @  PC=0x340 (_1.ptx:158) bra.uni BB0_5;
GPGPU-Sim PTX:    immediate post dominator      @  PC=0x348 (_1.ptx:161) setp.gt.s32%p16, %r23, %r6;
GPGPU-Sim PTX:  6 (potential) branch divergence @  PC=0x3d0 (_1.ptx:178) @%p28 bra BB0_7;
GPGPU-Sim PTX:    immediate post dominator      @  PC=0x538 (_1.ptx:226) bar.sync 0;
GPGPU-Sim PTX:  7 (potential) branch divergence @  PC=0x548 (_1.ptx:228) @%p31 bra BB0_11;
GPGPU-Sim PTX:    immediate post dominator      @  PC=0x5b0 (_1.ptx:247) and.b16 %rs7, %rs8, 255;
GPGPU-Sim PTX:  8 (potential) branch divergence @  PC=0x558 (_1.ptx:231) @%p32 bra BB0_10;
GPGPU-Sim PTX:    immediate post dominator      @  PC=0x590 (_1.ptx:241) bar.sync 0;
GPGPU-Sim PTX:  9 (potential) branch divergence @  PC=0x5a8 (_1.ptx:244) @%p33 bra BB0_4;
GPGPU-Sim PTX:    immediate post dominator      @  PC=0x5b0 (_1.ptx:247) and.b16 %rs7, %rs8, 255;
GPGPU-Sim PTX: 10 (potential) branch divergence @  PC=0x5c0 (_1.ptx:249) @%p34 bra BB0_13;
GPGPU-Sim PTX:    immediate post dominator      @  PC=0x620 (_1.ptx:264) ret;
GPGPU-Sim PTX: ... end of reconvergence points for _Z14calculate_tempiPfS_S_iiiiffffff
GPGPU-Sim PTX: ... done pre-decoding instructions for '_Z14calculate_tempiPfS_S_iiiiffffff'.
GPGPU-Sim PTX: finished parsing EMBEDDED .ptx file _1.ptx
Adding _cuobjdump_1.ptx with cubin handle 1
GPGPU-Sim PTX: extracting embedded .ptx to temporary file "_ptx_Czl7lo"
Running: cat _ptx_Czl7lo | sed 's/.version 1.5/.version 1.4/' | sed 's/, texmode_independent//' | sed 's/\(\.extern \.const\[1\] .b8 \w\+\)\[\]/\1\[1\]/' | sed 's/const\[.\]/const\[0\]/g' > _ptx2_8pQrra
GPGPU-Sim PTX: generating ptxinfo using "$CUDA_INSTALL_PATH/bin/ptxas --gpu-name=sm_20 -v _ptx2_8pQrra --output-file  /dev/null 2> _ptx_Czl7loinfo"
GPGPU-Sim PTX: Kernel '_Z14calculate_tempiPfS_S_iiiiffffff' : regs=34, lmem=0, smem=3072, cmem=120
GPGPU-Sim PTX: removing ptxinfo using "rm -f _ptx_Czl7lo _ptx2_8pQrra _ptx_Czl7loinfo"
GPGPU-Sim PTX: loading globals with explicit initializers... 
GPGPU-Sim PTX: finished loading globals (0 bytes total).
GPGPU-Sim PTX: loading constants with explicit initializers...  done.
WG size of kernel = 16 X 16
pyramidHeight: 2
gridSize: [512, 512]
border:[2, 2]
blockGrid:[43, 43]
targetBlock:[12, 12]
Start computing the transient temperature

GPGPU-Sim PTX: cudaLaunch for 0x0x401ae2 (mode=performance simulation) on stream 0
GPGPU-Sim PTX: pushing kernel '_Z14calculate_tempiPfS_S_iiiiffffff' to stream 0, gridDim= (43,43,1) blockDim = (16,16,1) 
GPGPU-Sim uArch: Shader 1 bind to kernel 1 '_Z14calculate_tempiPfS_S_iiiiffffff'
GPGPU-Sim uArch: CTA/core = 7, limited by: regs
GPGPU-Sim uArch: Shader 2 bind to kernel 1 '_Z14calculate_tempiPfS_S_iiiiffffff'
GPGPU-Sim uArch: Shader 3 bind to kernel 1 '_Z14calculate_tempiPfS_S_iiiiffffff'
GPGPU-Sim uArch: Shader 4 bind to kernel 1 '_Z14calculate_tempiPfS_S_iiiiffffff'
GPGPU-Sim uArch: Shader 5 bind to kernel 1 '_Z14calculate_tempiPfS_S_iiiiffffff'
GPGPU-Sim uArch: Shader 6 bind to kernel 1 '_Z14calculate_tempiPfS_S_iiiiffffff'
GPGPU-Sim uArch: Shader 7 bind to kernel 1 '_Z14calculate_tempiPfS_S_iiiiffffff'
GPGPU-Sim uArch: Shader 8 bind to kernel 1 '_Z14calculate_tempiPfS_S_iiiiffffff'
GPGPU-Sim uArch: Shader 9 bind to kernel 1 '_Z14calculate_tempiPfS_S_iiiiffffff'
GPGPU-Sim uArch: Shader 10 bind to kernel 1 '_Z14calculate_tempiPfS_S_iiiiffffff'
GPGPU-Sim uArch: Shader 11 bind to kernel 1 '_Z14calculate_tempiPfS_S_iiiiffffff'
GPGPU-Sim uArch: Shader 12 bind to kernel 1 '_Z14calculate_tempiPfS_S_iiiiffffff'
GPGPU-Sim uArch: Shader 13 bind to kernel 1 '_Z14calculate_tempiPfS_S_iiiiffffff'
GPGPU-Sim uArch: Shader 14 bind to kernel 1 '_Z14calculate_tempiPfS_S_iiiiffffff'
GPGPU-Sim uArch: Shader 15 bind to kernel 1 '_Z14calculate_tempiPfS_S_iiiiffffff'
GPGPU-Sim uArch: Shader 16 bind to kernel 1 '_Z14calculate_tempiPfS_S_iiiiffffff'
GPGPU-Sim uArch: Shader 17 bind to kernel 1 '_Z14calculate_tempiPfS_S_iiiiffffff'
GPGPU-Sim uArch: Shader 18 bind to kernel 1 '_Z14calculate_tempiPfS_S_iiiiffffff'
GPGPU-Sim uArch: Shader 19 bind to kernel 1 '_Z14calculate_tempiPfS_S_iiiiffffff'
GPGPU-Sim uArch: Shader 20 bind to kernel 1 '_Z14calculate_tempiPfS_S_iiiiffffff'
GPGPU-Sim uArch: Shader 21 bind to kernel 1 '_Z14calculate_tempiPfS_S_iiiiffffff'
GPGPU-Sim uArch: Shader 22 bind to kernel 1 '_Z14calculate_tempiPfS_S_iiiiffffff'
GPGPU-Sim uArch: Shader 23 bind to kernel 1 '_Z14calculate_tempiPfS_S_iiiiffffff'
GPGPU-Sim uArch: Shader 24 bind to kernel 1 '_Z14calculate_tempiPfS_S_iiiiffffff'
GPGPU-Sim uArch: Shader 25 bind to kernel 1 '_Z14calculate_tempiPfS_S_iiiiffffff'
GPGPU-Sim uArch: Shader 26 bind to kernel 1 '_Z14calculate_tempiPfS_S_iiiiffffff'
GPGPU-Sim uArch: Shader 27 bind to kernel 1 '_Z14calculate_tempiPfS_S_iiiiffffff'
GPGPU-Sim uArch: Shader 0 bind to kernel 1 '_Z14calculate_tempiPfS_S_iiiiffffff'
Destroy streams for kernel 1: size 0
kernel_name = _Z14calculate_tempiPfS_S_iiiiffffff 
kernel_launch_uid = 1 
gpu_sim_cycle = 2002645
gpu_sim_insn = 103760320
gpu_ipc =      51.8116
gpu_tot_sim_cycle = 2224795
gpu_tot_sim_insn = 103760320
gpu_tot_ipc =      46.6381
gpu_tot_issued_cta = 1849
max_total_param_size = 0
gpu_stall_dramfull = 0
gpu_stall_icnt2sh    = 98643
partiton_reqs_in_parallel = 44058190
partiton_reqs_in_parallel_total    = 0
partiton_level_parallism =      22.0000
partiton_level_parallism_total  =      19.8033
partiton_reqs_in_parallel_util = 44058190
partiton_reqs_in_parallel_util_total    = 0
gpu_sim_cycle_parition_util = 2002645
gpu_tot_sim_cycle_parition_util    = 0
partiton_level_parallism_util =      22.0000
partiton_level_parallism_util_total  =      22.0000
partiton_replys_in_parallel = 113236
partiton_replys_in_parallel_total    = 0
L2_BW  =       5.3594 GB/Sec
L2_BW_total  =       4.8242 GB/Sec
gpu_total_sim_rate=15535

========= Core cache stats =========
L1I_cache:
	L1I_total_cache_accesses = 1933624
	L1I_total_cache_misses = 5986
	L1I_total_cache_miss_rate = 0.0031
	L1I_total_cache_pending_hits = 0
	L1I_total_cache_reservation_fails = 6846
L1D_cache:
	L1D_cache_core[0]: Access = 0, Miss = 0, Miss_rate = -nan, Pending_hits = 0, Reservation_fails = 0
	L1D_cache_core[1]: Access = 0, Miss = 0, Miss_rate = -nan, Pending_hits = 0, Reservation_fails = 0
	L1D_cache_core[2]: Access = 0, Miss = 0, Miss_rate = -nan, Pending_hits = 0, Reservation_fails = 0
	L1D_cache_core[3]: Access = 0, Miss = 0, Miss_rate = -nan, Pending_hits = 0, Reservation_fails = 0
	L1D_cache_core[4]: Access = 0, Miss = 0, Miss_rate = -nan, Pending_hits = 0, Reservation_fails = 0
	L1D_cache_core[5]: Access = 0, Miss = 0, Miss_rate = -nan, Pending_hits = 0, Reservation_fails = 0
	L1D_cache_core[6]: Access = 0, Miss = 0, Miss_rate = -nan, Pending_hits = 0, Reservation_fails = 0
	L1D_cache_core[7]: Access = 0, Miss = 0, Miss_rate = -nan, Pending_hits = 0, Reservation_fails = 0
	L1D_cache_core[8]: Access = 0, Miss = 0, Miss_rate = -nan, Pending_hits = 0, Reservation_fails = 0
	L1D_cache_core[9]: Access = 0, Miss = 0, Miss_rate = -nan, Pending_hits = 0, Reservation_fails = 0
	L1D_cache_core[10]: Access = 0, Miss = 0, Miss_rate = -nan, Pending_hits = 0, Reservation_fails = 0
	L1D_cache_core[11]: Access = 0, Miss = 0, Miss_rate = -nan, Pending_hits = 0, Reservation_fails = 0
	L1D_cache_core[12]: Access = 0, Miss = 0, Miss_rate = -nan, Pending_hits = 0, Reservation_fails = 0
	L1D_cache_core[13]: Access = 0, Miss = 0, Miss_rate = -nan, Pending_hits = 0, Reservation_fails = 0
	L1D_cache_core[14]: Access = 0, Miss = 0, Miss_rate = -nan, Pending_hits = 0, Reservation_fails = 0
	L1D_cache_core[15]: Access = 0, Miss = 0, Miss_rate = -nan, Pending_hits = 0, Reservation_fails = 0
	L1D_cache_core[16]: Access = 0, Miss = 0, Miss_rate = -nan, Pending_hits = 0, Reservation_fails = 0
	L1D_cache_core[17]: Access = 0, Miss = 0, Miss_rate = -nan, Pending_hits = 0, Reservation_fails = 0
	L1D_cache_core[18]: Access = 0, Miss = 0, Miss_rate = -nan, Pending_hits = 0, Reservation_fails = 0
	L1D_cache_core[19]: Access = 0, Miss = 0, Miss_rate = -nan, Pending_hits = 0, Reservation_fails = 0
	L1D_cache_core[20]: Access = 0, Miss = 0, Miss_rate = -nan, Pending_hits = 0, Reservation_fails = 0
	L1D_cache_core[21]: Access = 0, Miss = 0, Miss_rate = -nan, Pending_hits = 0, Reservation_fails = 0
	L1D_cache_core[22]: Access = 0, Miss = 0, Miss_rate = -nan, Pending_hits = 0, Reservation_fails = 0
	L1D_cache_core[23]: Access = 0, Miss = 0, Miss_rate = -nan, Pending_hits = 0, Reservation_fails = 0
	L1D_cache_core[24]: Access = 0, Miss = 0, Miss_rate = -nan, Pending_hits = 0, Reservation_fails = 0
	L1D_cache_core[25]: Access = 0, Miss = 0, Miss_rate = -nan, Pending_hits = 0, Reservation_fails = 0
	L1D_cache_core[26]: Access = 0, Miss = 0, Miss_rate = -nan, Pending_hits = 0, Reservation_fails = 0
	L1D_cache_core[27]: Access = 0, Miss = 0, Miss_rate = -nan, Pending_hits = 0, Reservation_fails = 0
	L1D_total_cache_accesses = 0
	L1D_total_cache_misses = 0
	L1D_total_cache_pending_hits = 0
	L1D_total_cache_reservation_fails = 0
	L1D_cache_data_port_util = 0.000
	L1D_cache_fill_port_util = 0.000
L1C_cache:
	L1C_total_cache_accesses = 192296
	L1C_total_cache_misses = 2195
	L1C_total_cache_miss_rate = 0.0114
	L1C_total_cache_pending_hits = 0
	L1C_total_cache_reservation_fails = 4886
L1T_cache:
	L1T_total_cache_accesses = 0
	L1T_total_cache_misses = 0
	L1T_total_cache_pending_hits = 0
	L1T_total_cache_reservation_fails = 0

Total_core_cache_stats:
	Total_core_cache_stats_breakdown[GLOBAL_ACC_R][HIT] = 0
	Total_core_cache_stats_breakdown[GLOBAL_ACC_R][HIT_RESERVED] = 0
	Total_core_cache_stats_breakdown[GLOBAL_ACC_R][MISS] = 0
	Total_core_cache_stats_breakdown[GLOBAL_ACC_R][RESERVATION_FAIL] = 0
	Total_core_cache_stats_breakdown[LOCAL_ACC_R][HIT] = 0
	Total_core_cache_stats_breakdown[LOCAL_ACC_R][HIT_RESERVED] = 0
	Total_core_cache_stats_breakdown[LOCAL_ACC_R][MISS] = 0
	Total_core_cache_stats_breakdown[LOCAL_ACC_R][RESERVATION_FAIL] = 0
	Total_core_cache_stats_breakdown[CONST_ACC_R][HIT] = 190101
	Total_core_cache_stats_breakdown[CONST_ACC_R][HIT_RESERVED] = 0
	Total_core_cache_stats_breakdown[CONST_ACC_R][MISS] = 2195
	Total_core_cache_stats_breakdown[CONST_ACC_R][RESERVATION_FAIL] = 4886
	Total_core_cache_stats_breakdown[TEXTURE_ACC_R][HIT] = 0
	Total_core_cache_stats_breakdown[TEXTURE_ACC_R][HIT_RESERVED] = 0
	Total_core_cache_stats_breakdown[TEXTURE_ACC_R][MISS] = 0
	Total_core_cache_stats_breakdown[TEXTURE_ACC_R][RESERVATION_FAIL] = 0
	Total_core_cache_stats_breakdown[GLOBAL_ACC_W][HIT] = 0
	Total_core_cache_stats_breakdown[GLOBAL_ACC_W][HIT_RESERVED] = 0
	Total_core_cache_stats_breakdown[GLOBAL_ACC_W][MISS] = 0
	Total_core_cache_stats_breakdown[GLOBAL_ACC_W][RESERVATION_FAIL] = 0
	Total_core_cache_stats_breakdown[LOCAL_ACC_W][HIT] = 0
	Total_core_cache_stats_breakdown[LOCAL_ACC_W][HIT_RESERVED] = 0
	Total_core_cache_stats_breakdown[LOCAL_ACC_W][MISS] = 0
	Total_core_cache_stats_breakdown[LOCAL_ACC_W][RESERVATION_FAIL] = 0
	Total_core_cache_stats_breakdown[L1_WRBK_ACC][HIT] = 0
	Total_core_cache_stats_breakdown[L1_WRBK_ACC][HIT_RESERVED] = 0
	Total_core_cache_stats_breakdown[L1_WRBK_ACC][MISS] = 0
	Total_core_cache_stats_breakdown[L1_WRBK_ACC][RESERVATION_FAIL] = 0
	Total_core_cache_stats_breakdown[L2_WRBK_ACC][HIT] = 0
	Total_core_cache_stats_breakdown[L2_WRBK_ACC][HIT_RESERVED] = 0
	Total_core_cache_stats_breakdown[L2_WRBK_ACC][MISS] = 0
	Total_core_cache_stats_breakdown[L2_WRBK_ACC][RESERVATION_FAIL] = 0
	Total_core_cache_stats_breakdown[INST_ACC_R][HIT] = 1927638
	Total_core_cache_stats_breakdown[INST_ACC_R][HIT_RESERVED] = 0
	Total_core_cache_stats_breakdown[INST_ACC_R][MISS] = 5986
	Total_core_cache_stats_breakdown[INST_ACC_R][RESERVATION_FAIL] = 6846
	Total_core_cache_stats_breakdown[L1_WR_ALLOC_R][HIT] = 0
	Total_core_cache_stats_breakdown[L1_WR_ALLOC_R][HIT_RESERVED] = 0
	Total_core_cache_stats_breakdown[L1_WR_ALLOC_R][MISS] = 0
	Total_core_cache_stats_breakdown[L1_WR_ALLOC_R][RESERVATION_FAIL] = 0
	Total_core_cache_stats_breakdown[L2_WR_ALLOC_R][HIT] = 0
	Total_core_cache_stats_breakdown[L2_WR_ALLOC_R][HIT_RESERVED] = 0
	Total_core_cache_stats_breakdown[L2_WR_ALLOC_R][MISS] = 0
	Total_core_cache_stats_breakdown[L2_WR_ALLOC_R][RESERVATION_FAIL] = 0
	Total_core_cache_stats_breakdown[CONST_ACC_R][TOTAL_ACCESS] = 192296
	Total_core_cache_stats_breakdown[INST_ACC_R][TOTAL_ACCESS] = 1933624
Shader 0 warp_id issue ditsribution:
warp_id:
0, 1, 2, 3, 4, 5, 6, 7, 8, 9, 10, 11, 12, 13, 14, 15, 16, 17, 18, 19, 20, 21, 22, 23, 24, 25, 26, 27, 28, 29, 30, 31, 32, 33, 34, 35, 36, 37, 38, 39, 40, 41, 42, 43, 44, 45, 46, 47, 48, 49, 50, 51, 52, 53, 54, 55, 
distro:
2431, 3136, 3141, 3132, 3137, 2993, 2995, 2433, 2503, 3133, 3134, 3136, 3136, 2983, 2989, 2425, 2502, 3126, 3130, 3127, 3131, 2982, 2988, 2428, 2240, 2807, 2807, 2808, 2807, 2806, 2808, 2251, 2245, 2808, 2809, 2812, 2811, 2801, 2816, 2249, 2251, 2813, 2815, 2818, 2818, 2817, 2819, 2256, 2254, 2821, 2821, 2822, 2823, 2677, 2682, 2181, 
gpgpu_n_tot_thrd_icount = 121236608
gpgpu_n_tot_w_icount = 3788644
gpgpu_n_stall_shd_mem = 82687
gpgpu_n_mem_read_local = 0
gpgpu_n_mem_write_local = 0
gpgpu_n_mem_read_global = 85680
gpgpu_n_mem_write_global = 27136
gpgpu_n_mem_texture = 0
gpgpu_n_mem_const = 56
gpgpu_n_load_insn  = 924800
gpgpu_n_store_insn = 262144
gpgpu_n_shmem_insn = 6218896
gpgpu_n_tex_insn = 0
gpgpu_n_const_mem_insn = 0
gpgpu_n_param_mem_insn = 6153472
gpgpu_n_shmem_bkconflict = 0
gpgpu_n_cache_bkconflict = 0
gpgpu_n_intrawarp_mshr_merge = 0
gpgpu_n_cmem_portconflict = 4886
gpgpu_stall_shd_mem[c_mem][bk_conf] = 4886
gpgpu_stall_shd_mem[c_mem][mshr_rc] = 0
gpgpu_stall_shd_mem[c_mem][icnt_rc] = 0
gpgpu_stall_shd_mem[c_mem][data_port_stall] = 0
gpgpu_stall_shd_mem[t_mem][mshr_rc] = 0
gpgpu_stall_shd_mem[t_mem][icnt_rc] = 0
gpgpu_stall_shd_mem[t_mem][data_port_stall] = 0
gpgpu_stall_shd_mem[s_mem][bk_conf] = 0
gpgpu_stall_shd_mem[gl_mem][bk_conf] = 0
gpgpu_stall_shd_mem[gl_mem][coal_stall] = 72568
gpgpu_stall_shd_mem[gl_mem][data_port_stall] = 0
gpgpu_stall_shd_mem[g_mem_ld][mshr_rc] = 0
gpgpu_stall_shd_mem[g_mem_ld][icnt_rc] = 5233
gpgpu_stall_shd_mem[g_mem_ld][wb_icnt_rc] = 0
gpgpu_stall_shd_mem[g_mem_ld][wb_rsrv_fail] = 0
gpgpu_stall_shd_mem[g_mem_st][mshr_rc] = 0
gpgpu_stall_shd_mem[g_mem_st][icnt_rc] = 0
gpgpu_stall_shd_mem[g_mem_st][wb_icnt_rc] = 0
gpgpu_stall_shd_mem[g_mem_st][wb_rsrv_fail] = 0
gpgpu_stall_shd_mem[l_mem_ld][mshr_rc] = 0
gpgpu_stall_shd_mem[l_mem_ld][icnt_rc] = 0
gpgpu_stall_shd_mem[l_mem_ld][wb_icnt_rc] = 0
gpgpu_stall_shd_mem[l_mem_ld][wb_rsrv_fail] = 0
gpgpu_stall_shd_mem[l_mem_st][mshr_rc] = 0
gpgpu_stall_shd_mem[l_mem_st][icnt_rc] = 0
gpgpu_stall_shd_mem[l_mem_ld][wb_icnt_rc] = 0
gpgpu_stall_shd_mem[l_mem_ld][wb_rsrv_fail] = 0
gpu_reg_bank_conflict_stalls = 0
Warp Occupancy Distribution:
Stall:186966	W0_Idle:16234159	W0_Scoreboard:92420925	W1:0	W2:0	W3:0	W4:0	W5:0	W6:0	W7:0	W8:0	W9:4200	W10:0	W11:0	W12:0	W13:4200	W14:172200	W15:0	W16:14080	W17:0	W18:12800	W19:0	W20:6460	W21:0	W22:0	W23:0	W24:872408	W25:0	W26:12800	W27:0	W28:812308	W29:0	W30:0	W31:0	W32:1877188
traffic_breakdown_coretomem[CONST_ACC_R] = 448 {8:56,}
traffic_breakdown_coretomem[GLOBAL_ACC_R] = 685440 {8:85680,}
traffic_breakdown_coretomem[GLOBAL_ACC_W] = 1970176 {40:10752,72:10752,136:5632,}
traffic_breakdown_coretomem[INST_ACC_R] = 2912 {8:364,}
traffic_breakdown_memtocore[CONST_ACC_R] = 4032 {72:56,}
traffic_breakdown_memtocore[GLOBAL_ACC_R] = 7126400 {40:27200,72:29920,136:28560,}
traffic_breakdown_memtocore[GLOBAL_ACC_W] = 217088 {8:27136,}
traffic_breakdown_memtocore[INST_ACC_R] = 49504 {136:364,}
maxmrqlatency = 69 
maxdqlatency = 0 
maxmflatency = 80789 
averagemflatency = 60211 
max_icnt2mem_latency = 80489 
max_icnt2sh_latency = 2224794 
mrq_lat_table:21239 	2596 	1533 	6672 	10414 	9169 	103 	0 	0 	0 	0 	0 	0 	0 	0 	0 	0 	0 	0 	0 	0 	0 	0 	0 	0 	0 	0 	0 	0 	0 	0 	0 	
dq_lat_table:0 	0 	0 	0 	0 	0 	0 	0 	0 	0 	0 	0 	0 	0 	0 	0 	0 	0 	0 	0 	0 	0 	0 	0 	0 	0 	0 	0 	0 	0 	0 	0 	
mf_lat_table:0 	0 	0 	0 	0 	0 	0 	10757 	499 	0 	0 	252 	378 	378 	1906 	33590 	65112 	0 	0 	0 	0 	0 	0 	0 	0 	0 	0 	0 	0 	0 	0 	0 	
icnt2mem_lat_table:0 	0 	8336 	23 	19 	0 	3242 	0 	0 	0 	0 	252 	378 	378 	1908 	34281 	64419 	0 	0 	0 	0 	0 	0 	0 	
icnt2sh_lat_table:0 	0 	24740 	49542 	11434 	20 	0 	0 	0 	0 	0 	0 	0 	0 	0 	0 	0 	0 	3180 	6360 	15582 	2014 	0 	0 	
mf_lat_pw_table:0 	0 	0 	0 	0 	0 	0 	27 	0 	0 	0 	1 	2 	4 	20 	266 	544 	0 	0 	0 	0 	0 	0 	0 	0 	0 	0 	0 	0 	0 	0 	0 	
maximum concurrent accesses to same row:
dram[0]:        68        70        68        70        63        66        68        70        68        70        60        60        68        70        68        70 
dram[1]:        68        70        68        70        64        65        68        70        68        70        60        62        68        70        68        70 
dram[2]:        68        70        68        70        64        66        68        70        68        70        58        62        68        70        68        70 
dram[3]:        68        70        68        70        64        65        68        70        68        70        60        60        68        70        68        70 
dram[4]:        68        70        68        70        64        66        68        70        68        70        60        62        68        70        68        70 
dram[5]:        68        70        68        70        63        66        68        70        68        70        63        66        68        70        68        70 
dram[6]:        68        70        68        70        60        60        68        70        68        70        64        65        68        70        68        70 
dram[7]:        68        70        68        70        60        62        68        70        68        70        64        66        68        70        68        70 
dram[8]:        68        70        68        70        58        62        68        70        68        70        64        65        68        70        68        70 
dram[9]:        68        70        68        70        60        60        68        70        68        70        64        66        68        70        68        70 
dram[10]:        68        70        68        70        60        62        68        70        68        70        63        66        68        70        68        70 
maximum service time to same row:
dram[0]:    362097    362095    520998    521000    346462    346466    364699    364699    403775    403774    359484    359485    367303    367305    408986    408985 
dram[1]:    362094    362094    520999    520999    346459    346467    364698    364700    403775    403773    359485    359484    367303    367304    408986    408985 
dram[2]:    362097    362094    521000    520998    346464    346464    364699    364699    403776    403774    359488    359487    364699    364699    408986    408985 
dram[3]:    362096    362095    520999    521000    346467    346466    364694    364700    403778    403775    359485    359488    364699    364699    408985    408986 
dram[4]:    362091    362095    520999    520999    346464    346467    364696    364707    403777    403777    359489    359485    364700    364708    408986    408985 
dram[5]:    362096    362094    521000    520998    346462    346461    372512    372514    403776    403775    359490    359489    459047    459041    408986    408985 
dram[6]:    362095    362094    520998    521000    346460    346460    369911    369911    403775    403776    359489    359491    459030    459125    408985    408984 
dram[7]:    362089    362093    520999    520993    346461    346461    367303    367306    403776    403775    359490    359489    459044    459049    408987    408987 
dram[8]:    362095    362093    520996    520998    346465    346467    364699    364698    403776    403776    359491    359489    364698    364699    408985    408985 
dram[9]:    362090    362093    520996    520996    346462    346463    364696    364699    403777    403775    359491    359490    364696    364699    408987    408987 
dram[10]:    362093    362094    520998    520997    346465    346463    364699    364697    403777    403775    359491    359485    367303    367303    408986    408986 
average row accesses per activate:
dram[0]: 30.100000 30.600000 30.000000 30.600000 21.428572 21.857143 32.777779 33.444443 22.727272 23.363636 23.333334 23.666666 33.333332 34.000000 23.076923 23.538462 
dram[1]: 30.000000 30.600000 30.000000 30.600000 21.428572 21.857143 32.777779 33.444443 22.909090 23.181818 23.416666 23.916666 33.333332 34.000000 23.076923 23.538462 
dram[2]: 30.000000 30.600000 30.000000 30.600000 21.428572 21.857143 32.666668 33.333332 22.909090 23.363636 23.250000 23.916666 33.333332 34.000000 23.076923 23.538462 
dram[3]: 30.000000 30.600000 30.000000 30.600000 21.428572 21.857143 32.666668 33.333332 22.818182 23.272728 23.416666 23.750000 33.333332 34.000000 23.076923 23.538462 
dram[4]: 30.000000 30.600000 30.000000 30.600000 21.428572 21.857143 32.666668 33.333332 22.909090 23.272728 23.416666 23.916666 33.333332 34.000000 21.500000 21.928572 
dram[5]: 30.000000 30.600000 30.000000 30.600000 21.428572 21.857143 32.666668 33.333332 22.818182 23.363636 23.583334 24.166666 33.333332 34.000000 21.500000 21.928572 
dram[6]: 30.000000 30.600000 30.000000 30.600000 21.428572 21.857143 32.666668 33.333332 22.909090 23.181818 23.666666 24.083334 33.333332 34.000000 21.500000 21.928572 
dram[7]: 30.000000 30.600000 30.000000 30.600000 21.428572 21.857143 32.666668 33.333332 22.909090 23.363636 23.666666 24.166666 33.333332 34.000000 21.500000 21.928572 
dram[8]: 30.000000 30.600000 30.000000 30.600000 21.428572 21.857143 32.666668 33.333332 22.727272 23.363636 23.666666 24.083334 33.333332 34.000000 21.500000 21.928572 
dram[9]: 30.000000 30.600000 30.000000 30.600000 21.428572 21.857143 32.666668 33.333332 22.636364 22.818182 23.666666 24.166666 33.333332 34.000000 21.500000 21.928572 
dram[10]: 30.000000 30.600000 30.000000 30.600000 21.428572 21.857143 32.666668 33.333332 22.636364 23.090910 23.583334 24.166666 33.333332 34.000000 21.500000 23.538462 
average row locality = 51726/1949 = 26.539764
number of total memory accesses made:
dram[0]:         0         0         0         0         0         0         0         0         0         0         0         0         0         0         0         0 
dram[1]:         0         0         0         0         0         0         0         0         0         0         0         0         0         0         0         0 
dram[2]:         0         0         0         0         0         0         0         0         0         0         0         0         0         0         0         0 
dram[3]:         0         0         0         0         0         0         0         0         0         0         0         0         0         0         0         0 
dram[4]:         0         0         0         0         0         0         0         0         0         0         0         0         0         0         0         0 
dram[5]:         0         0         0         0         0         0         0         0         0         0         0         0         0         0         0         0 
dram[6]:         0         0         0         0         0         0         0         0         0         0         0         0         0         0         0         0 
dram[7]:         0         0         0         0         0         0         0         0         0         0         0         0         0         0         0         0 
dram[8]:         0         0         0         0         0         0         0         0         0         0         0         0         0         0         0         0 
dram[9]:         0         0         0         0         0         0         0         0         0         0         0         0         0         0         0         0 
dram[10]:         0         0         0         0         0         0         0         0         0         0         0         0         0         0         0         0 
total accesses: 0
min_bank_accesses = 0!
min_chip_accesses = 0!
number of total read accesses:
dram[0]:       145       144       144       144       144       144       139       139       128       128       130       130       144       144       144       144 
dram[1]:       144       144       144       144       144       144       139       139       128       128       131       131       144       144       144       144 
dram[2]:       144       144       144       144       144       144       138       138       128       128       131       131       144       144       144       144 
dram[3]:       144       144       144       144       144       144       138       138       128       128       131       131       144       144       144       144 
dram[4]:       144       144       144       144       144       144       138       138       128       128       131       131       144       144       145       145 
dram[5]:       144       144       144       144       144       144       138       138       128       128       131       131       144       144       145       145 
dram[6]:       144       144       144       144       144       144       138       138       128       128       131       131       144       144       145       145 
dram[7]:       144       144       144       144       144       144       138       138       128       128       131       131       144       144       145       145 
dram[8]:       144       144       144       144       144       144       138       138       128       128       131       131       144       144       145       145 
dram[9]:       144       144       144       144       144       144       138       138       128       128       131       131       144       144       145       145 
dram[10]:       144       144       144       144       144       144       138       138       128       128       131       131       144       144       145       144 
total reads: 24590
bank skew: 145/128 = 1.13
chip skew: 2236/2234 = 1.00
number of total write accesses:
dram[0]:       156       162       156       162       156       162       156       162       122       129       150       154       156       162       156       162 
dram[1]:       156       162       156       162       156       162       156       162       124       127       150       156       156       162       156       162 
dram[2]:       156       162       156       162       156       162       156       162       124       129       148       156       156       162       156       162 
dram[3]:       156       162       156       162       156       162       156       162       123       128       150       154       156       162       156       162 
dram[4]:       156       162       156       162       156       162       156       162       124       128       150       156       156       162       156       162 
dram[5]:       156       162       156       162       156       162       156       162       123       129       152       159       156       162       156       162 
dram[6]:       156       162       156       162       156       162       156       162       124       127       153       158       156       162       156       162 
dram[7]:       156       162       156       162       156       162       156       162       124       129       153       159       156       162       156       162 
dram[8]:       156       162       156       162       156       162       156       162       122       129       153       158       156       162       156       162 
dram[9]:       156       162       156       162       156       162       156       162       121       123       153       159       156       162       156       162 
dram[10]:       156       162       156       162       156       162       156       162       121       126       152       159       156       162       156       162 
total reads: 27136
bank skew: 162/121 = 1.34
chip skew: 2473/2463 = 1.00
average mf latency per bank:
dram[0]:     135554    136066    134286    134023    134541    134779    116606    117118    140463    139283    134748    136091    131202    131305    125611    125600
dram[1]:     136283    136237    134944    134925    133778    133639    117386    117136    140804    141176    134774    134864    129346    129386    125777    125820
dram[2]:     136531    136713    134391    133629    132491    132534    117538    118163    142062    141863    134800    134585    127862    128035    127234    128055
dram[3]:     135763    135604    134081    133660    131990    131955    118353    118479    141653    141508    134545    135570    127858    128083    128888    129124
dram[4]:     135469    135726    134843    135304    132264    132065    118065    117312    140583    140396    134644    134984    127956    128412    128486    127898
dram[5]:     135424    135942    135357    135013    131953    132500    117176    117457    140575    140244    133351    133682    127487    127737    128973    128903
dram[6]:     136018    136216    136696    136607    131899    131855    117081    116959    139706    140441    133942    134506    128740    128990    126750    126047
dram[7]:     136304    136810    136216    135585    132555    132755    116865    116456    140697    140662    132888    133136    128827    128555    125100    125567
dram[8]:     136466    136582    133730    133337    133294    134347    117303    117519    142197    141133    131884    132917    128079    128836    127867    127551
dram[9]:     136057    135890    133958    133896    134141    134387    117874    117525    142524    142941    133115    133573    129820    130359    125778    125433
dram[10]:     135526    135758    133215    132929    134982    135100    116667    116401    142632    142359    132467    132540    130735    130969    125819    126841
maximum mf latency per bank:
dram[0]:      80575     80582     78139     78144     78136     78137     78138     78144     80734     80730     80745     80745     80740     80736     80745     80734
dram[1]:      80619     80619     78147     78146     78141     78138     78142     78153     80730     80737     80740     80745     80741     80738     80741     80739
dram[2]:      78141     78150     78147     78146     78137     78145     78143     78140     80732     80739     80741     80746     80741     80738     80743     80734
dram[3]:      78141     78144     78140     78148     78137     78134     78150     78144     80731     80734     80732     80739     80738     80739     80734     80727
dram[4]:      78142     78152     78148     78139     78137     78136     78140     78134     80741     80747     80736     80733     80742     80736     80733     80727
dram[5]:      80606     80604     78140     78138     78140     78140     78134     78134     80730     80750     80733     80736     80741     80742     80740     80742
dram[6]:      80601     80587     78132     78145     78133     78146     78145     78136     80730     80740     80745     80748     80739     80741     80744     80733
dram[7]:      80587     80574     78132     78139     78147     78144     78135     78135     80738     80732     80738     80737     80741     80742     80738     80739
dram[8]:      80605     80607     78144     78142     78136     78146     78135     78138     80734     80733     80736     80741     80740     80743     80734     80733
dram[9]:      80626     80630     78147     78140     78133     78141     78148     78134     80732     80736     80739     80789     80737     80743     80739     80730
dram[10]:      80586     80572     78150     78137     78136     78136     78146     78137     80733     80734     80737     80749     80739     80732     80745     80736
Memory Partition 0: 
Cache L2_bank_000:
MSHR contents

Cache L2_bank_001:
MSHR contents

In Dram Latency Queue (total = 0): 
DRAM[0]: 16 bks, busW=4 BL=8 CL=12, tRRD=2 tCCD=6, tRCD=12 tRAS=28 tRP=12 tRC=40
n_cmd=3718617 n_nop=3704362 n_act=177 n_pre=161 n_req=4698 n_rd=8940 n_write=4977 bw_util=0.007485
n_activity=45295 dram_eff=0.6145
bk0: 580a 3715064i bk1: 576a 3714212i bk2: 576a 3715021i bk3: 576a 3714213i bk4: 576a 3714984i bk5: 576a 3714064i bk6: 556a 3715133i bk7: 556a 3714254i bk8: 512a 3715606i bk9: 512a 3714862i bk10: 520a 3715203i bk11: 520a 3714447i bk12: 576a 3715090i bk13: 576a 3714177i bk14: 576a 3714922i bk15: 576a 3714150i 
dram_util_bins: 0 0 0 0 0 0 0 0 0 0
dram_eff_bins: 0 0 0 0 0 0 0 0 0 0
mrqq: max=15 avg=0.0334681
Memory Partition 1: 
Cache L2_bank_002:
MSHR contents

Cache L2_bank_003:
MSHR contents

In Dram Latency Queue (total = 0): 
DRAM[1]: 16 bks, busW=4 BL=8 CL=12, tRRD=2 tCCD=6, tRCD=12 tRAS=28 tRP=12 tRC=40
n_cmd=3718617 n_nop=3704362 n_act=176 n_pre=160 n_req=4701 n_rd=8944 n_write=4975 bw_util=0.007486
n_activity=45269 dram_eff=0.6149
bk0: 576a 3715067i bk1: 576a 3714202i bk2: 576a 3715008i bk3: 576a 3714234i bk4: 576a 3714967i bk5: 576a 3714063i bk6: 556a 3715088i bk7: 556a 3714304i bk8: 512a 3715616i bk9: 512a 3714863i bk10: 524a 3715182i bk11: 524a 3714425i bk12: 576a 3715091i bk13: 576a 3714189i bk14: 576a 3714931i bk15: 576a 3714083i 
dram_util_bins: 0 0 0 0 0 0 0 0 0 0
dram_eff_bins: 0 0 0 0 0 0 0 0 0 0
mrqq: max=15 avg=0.0330634
Memory Partition 2: 
Cache L2_bank_004:
MSHR contents

Cache L2_bank_005:
MSHR contents

In Dram Latency Queue (total = 0): 
DRAM[2]: 16 bks, busW=4 BL=8 CL=12, tRRD=2 tCCD=6, tRCD=12 tRAS=28 tRP=12 tRC=40
n_cmd=3718617 n_nop=3704370 n_act=176 n_pre=160 n_req=4699 n_rd=8936 n_write=4975 bw_util=0.007482
n_activity=45305 dram_eff=0.6141
bk0: 576a 3715058i bk1: 576a 3714159i bk2: 576a 3715013i bk3: 576a 3714172i bk4: 576a 3714948i bk5: 576a 3714071i bk6: 552a 3715124i bk7: 552a 3714320i bk8: 512a 3715585i bk9: 512a 3714870i bk10: 524a 3715194i bk11: 524a 3714425i bk12: 576a 3715056i bk13: 576a 3714208i bk14: 576a 3714942i bk15: 576a 3714131i 
dram_util_bins: 0 0 0 0 0 0 0 0 0 0
dram_eff_bins: 0 0 0 0 0 0 0 0 0 0
mrqq: max=15 avg=0.0332661
Memory Partition 3: 
Cache L2_bank_006:
MSHR contents

Cache L2_bank_007:
MSHR contents

In Dram Latency Queue (total = 0): 
DRAM[3]: 16 bks, busW=4 BL=8 CL=12, tRRD=2 tCCD=6, tRCD=12 tRAS=28 tRP=12 tRC=40
n_cmd=3718617 n_nop=3704368 n_act=176 n_pre=160 n_req=4697 n_rd=8936 n_write=4977 bw_util=0.007483
n_activity=45337 dram_eff=0.6138
bk0: 576a 3715065i bk1: 576a 3714186i bk2: 576a 3715033i bk3: 576a 3714184i bk4: 576a 3715010i bk5: 576a 3714042i bk6: 552a 3715170i bk7: 552a 3714251i bk8: 512a 3715636i bk9: 512a 3714828i bk10: 524a 3715216i bk11: 524a 3714392i bk12: 576a 3715072i bk13: 576a 3714226i bk14: 576a 3714950i bk15: 576a 3714148i 
dram_util_bins: 0 0 0 0 0 0 0 0 0 0
dram_eff_bins: 0 0 0 0 0 0 0 0 0 0
mrqq: max=15 avg=0.0333218
Memory Partition 4: 
Cache L2_bank_008:
MSHR contents

Cache L2_bank_009:
MSHR contents

In Dram Latency Queue (total = 0): 
DRAM[4]: 16 bks, busW=4 BL=8 CL=12, tRRD=2 tCCD=6, tRCD=12 tRAS=28 tRP=12 tRC=40
n_cmd=3718617 n_nop=3704359 n_act=178 n_pre=162 n_req=4702 n_rd=8944 n_write=4974 bw_util=0.007486
n_activity=45367 dram_eff=0.6136
bk0: 576a 3715108i bk1: 576a 3714170i bk2: 576a 3715055i bk3: 576a 3714173i bk4: 576a 3715056i bk5: 576a 3714058i bk6: 552a 3715134i bk7: 552a 3714292i bk8: 512a 3715620i bk9: 512a 3714826i bk10: 524a 3715175i bk11: 524a 3714407i bk12: 576a 3715062i bk13: 576a 3714182i bk14: 580a 3714934i bk15: 580a 3714090i 
dram_util_bins: 0 0 0 0 0 0 0 0 0 0
dram_eff_bins: 0 0 0 0 0 0 0 0 0 0
mrqq: max=14 avg=0.0329827
Memory Partition 5: 
Cache L2_bank_010:
MSHR contents

Cache L2_bank_011:
MSHR contents

In Dram Latency Queue (total = 0): 
DRAM[5]: 16 bks, busW=4 BL=8 CL=12, tRRD=2 tCCD=6, tRCD=12 tRAS=28 tRP=12 tRC=40
n_cmd=3718617 n_nop=3704344 n_act=178 n_pre=162 n_req=4707 n_rd=8944 n_write=4989 bw_util=0.007494
n_activity=45453 dram_eff=0.6131
bk0: 576a 3715066i bk1: 576a 3714155i bk2: 576a 3715011i bk3: 576a 3714220i bk4: 576a 3715040i bk5: 576a 3714042i bk6: 552a 3715133i bk7: 552a 3714323i bk8: 512a 3715572i bk9: 512a 3714839i bk10: 524a 3715159i bk11: 524a 3714371i bk12: 576a 3715112i bk13: 576a 3714161i bk14: 580a 3714952i bk15: 580a 3714072i 
dram_util_bins: 0 0 0 0 0 0 0 0 0 0
dram_eff_bins: 0 0 0 0 0 0 0 0 0 0
mrqq: max=15 avg=0.0327907
Memory Partition 6: 
Cache L2_bank_012:
MSHR contents

Cache L2_bank_013:
MSHR contents

In Dram Latency Queue (total = 0): 
DRAM[6]: 16 bks, busW=4 BL=8 CL=12, tRRD=2 tCCD=6, tRCD=12 tRAS=28 tRP=12 tRC=40
n_cmd=3718617 n_nop=3704343 n_act=178 n_pre=162 n_req=4706 n_rd=8944 n_write=4990 bw_util=0.007494
n_activity=45551 dram_eff=0.6118
bk0: 576a 3715065i bk1: 576a 3714137i bk2: 576a 3715050i bk3: 576a 3714224i bk4: 576a 3714960i bk5: 576a 3714051i bk6: 552a 3715141i bk7: 552a 3714343i bk8: 512a 3715577i bk9: 512a 3714859i bk10: 524a 3715111i bk11: 524a 3714363i bk12: 576a 3715100i bk13: 576a 3714172i bk14: 580a 3714927i bk15: 580a 3714096i 
dram_util_bins: 0 0 0 0 0 0 0 0 0 0
dram_eff_bins: 0 0 0 0 0 0 0 0 0 0
mrqq: max=14 avg=0.0328211
Memory Partition 7: 
Cache L2_bank_014:
MSHR contents

Cache L2_bank_015:
MSHR contents

In Dram Latency Queue (total = 0): 
DRAM[7]: 16 bks, busW=4 BL=8 CL=12, tRRD=2 tCCD=6, tRCD=12 tRAS=28 tRP=12 tRC=40
n_cmd=3718617 n_nop=3704346 n_act=178 n_pre=162 n_req=4709 n_rd=8944 n_write=4987 bw_util=0.007493
n_activity=45580 dram_eff=0.6113
bk0: 576a 3715094i bk1: 576a 3714188i bk2: 576a 3715085i bk3: 576a 3714171i bk4: 576a 3714978i bk5: 576a 3714067i bk6: 552a 3715099i bk7: 552a 3714351i bk8: 512a 3715628i bk9: 512a 3714849i bk10: 524a 3715168i bk11: 524a 3714369i bk12: 576a 3715086i bk13: 576a 3714152i bk14: 580a 3714952i bk15: 580a 3714101i 
dram_util_bins: 0 0 0 0 0 0 0 0 0 0
dram_eff_bins: 0 0 0 0 0 0 0 0 0 0
mrqq: max=14 avg=0.032528
Memory Partition 8: 
Cache L2_bank_016:
MSHR contents

Cache L2_bank_017:
MSHR contents

In Dram Latency Queue (total = 0): 
DRAM[8]: 16 bks, busW=4 BL=8 CL=12, tRRD=2 tCCD=6, tRCD=12 tRAS=28 tRP=12 tRC=40
n_cmd=3718617 n_nop=3704343 n_act=178 n_pre=162 n_req=4706 n_rd=8944 n_write=4990 bw_util=0.007494
n_activity=45611 dram_eff=0.611
bk0: 576a 3715071i bk1: 576a 3714166i bk2: 576a 3715051i bk3: 576a 3714160i bk4: 576a 3715026i bk5: 576a 3714042i bk6: 552a 3715129i bk7: 552a 3714286i bk8: 512a 3715629i bk9: 512a 3714839i bk10: 524a 3715135i bk11: 524a 3714392i bk12: 576a 3715073i bk13: 576a 3714195i bk14: 580a 3714964i bk15: 580a 3714107i 
dram_util_bins: 0 0 0 0 0 0 0 0 0 0
dram_eff_bins: 0 0 0 0 0 0 0 0 0 0
mrqq: max=14 avg=0.0327054
Memory Partition 9: 
Cache L2_bank_018:
MSHR contents

Cache L2_bank_019:
MSHR contents

In Dram Latency Queue (total = 0): 
DRAM[9]: 16 bks, busW=4 BL=8 CL=12, tRRD=2 tCCD=6, tRCD=12 tRAS=28 tRP=12 tRC=40
n_cmd=3718617 n_nop=3704357 n_act=178 n_pre=162 n_req=4700 n_rd=8944 n_write=4976 bw_util=0.007487
n_activity=45413 dram_eff=0.613
bk0: 576a 3715110i bk1: 576a 3714177i bk2: 576a 3715046i bk3: 576a 3714215i bk4: 576a 3715000i bk5: 576a 3714013i bk6: 552a 3715125i bk7: 552a 3714307i bk8: 512a 3715659i bk9: 512a 3714921i bk10: 524a 3715070i bk11: 524a 3714431i bk12: 576a 3715087i bk13: 576a 3714166i bk14: 580a 3714978i bk15: 580a 3714091i 
dram_util_bins: 0 0 0 0 0 0 0 0 0 0
dram_eff_bins: 0 0 0 0 0 0 0 0 0 0
mrqq: max=14 avg=0.0324761
Memory Partition 10: 
Cache L2_bank_020:
MSHR contents

Cache L2_bank_021:
MSHR contents

In Dram Latency Queue (total = 0): 
DRAM[10]: 16 bks, busW=4 BL=8 CL=12, tRRD=2 tCCD=6, tRCD=12 tRAS=28 tRP=12 tRC=40
n_cmd=3718617 n_nop=3704365 n_act=177 n_pre=161 n_req=4701 n_rd=8940 n_write=4974 bw_util=0.007483
n_activity=45465 dram_eff=0.6121
bk0: 576a 3715114i bk1: 576a 3714179i bk2: 576a 3715031i bk3: 576a 3714226i bk4: 576a 3715003i bk5: 576a 3714061i bk6: 552a 3715123i bk7: 552a 3714276i bk8: 512a 3715681i bk9: 512a 3714903i bk10: 524a 3715177i bk11: 524a 3714378i bk12: 576a 3715066i bk13: 576a 3714176i bk14: 580a 3714975i bk15: 576a 3714106i 
dram_util_bins: 0 0 0 0 0 0 0 0 0 0
dram_eff_bins: 0 0 0 0 0 0 0 0 0 0
mrqq: max=15 avg=0.032329

========= L2 cache stats =========
L2_cache_bank[0]: Access = 5094, Miss = 1118, Miss_rate = 0.219, Pending_hits = 3622, Reservation_fails = 0
L2_cache_bank[1]: Access = 5211, Miss = 1117, Miss_rate = 0.214, Pending_hits = 3704, Reservation_fails = 0
L2_cache_bank[2]: Access = 5049, Miss = 1118, Miss_rate = 0.221, Pending_hits = 3593, Reservation_fails = 0
L2_cache_bank[3]: Access = 5215, Miss = 1118, Miss_rate = 0.214, Pending_hits = 3700, Reservation_fails = 0
L2_cache_bank[4]: Access = 5040, Miss = 1117, Miss_rate = 0.222, Pending_hits = 3593, Reservation_fails = 0
L2_cache_bank[5]: Access = 5213, Miss = 1117, Miss_rate = 0.214, Pending_hits = 3709, Reservation_fails = 0
L2_cache_bank[6]: Access = 5043, Miss = 1117, Miss_rate = 0.221, Pending_hits = 3599, Reservation_fails = 0
L2_cache_bank[7]: Access = 5214, Miss = 1117, Miss_rate = 0.214, Pending_hits = 3708, Reservation_fails = 0
L2_cache_bank[8]: Access = 5074, Miss = 1118, Miss_rate = 0.220, Pending_hits = 3619, Reservation_fails = 0
L2_cache_bank[9]: Access = 5240, Miss = 1118, Miss_rate = 0.213, Pending_hits = 3733, Reservation_fails = 0
L2_cache_bank[10]: Access = 5066, Miss = 1118, Miss_rate = 0.221, Pending_hits = 3619, Reservation_fails = 0
L2_cache_bank[11]: Access = 5240, Miss = 1118, Miss_rate = 0.213, Pending_hits = 3741, Reservation_fails = 0
L2_cache_bank[12]: Access = 5076, Miss = 1118, Miss_rate = 0.220, Pending_hits = 3627, Reservation_fails = 0
L2_cache_bank[13]: Access = 5245, Miss = 1118, Miss_rate = 0.213, Pending_hits = 3736, Reservation_fails = 0
L2_cache_bank[14]: Access = 5072, Miss = 1118, Miss_rate = 0.220, Pending_hits = 3624, Reservation_fails = 0
L2_cache_bank[15]: Access = 5240, Miss = 1118, Miss_rate = 0.213, Pending_hits = 3730, Reservation_fails = 0
L2_cache_bank[16]: Access = 5065, Miss = 1118, Miss_rate = 0.221, Pending_hits = 3618, Reservation_fails = 0
L2_cache_bank[17]: Access = 5239, Miss = 1118, Miss_rate = 0.213, Pending_hits = 3738, Reservation_fails = 0
L2_cache_bank[18]: Access = 5075, Miss = 1118, Miss_rate = 0.220, Pending_hits = 3624, Reservation_fails = 0
L2_cache_bank[19]: Access = 5242, Miss = 1118, Miss_rate = 0.213, Pending_hits = 3730, Reservation_fails = 0
L2_cache_bank[20]: Access = 5070, Miss = 1118, Miss_rate = 0.221, Pending_hits = 3607, Reservation_fails = 0
L2_cache_bank[21]: Access = 5213, Miss = 1117, Miss_rate = 0.214, Pending_hits = 3706, Reservation_fails = 0
L2_total_cache_accesses = 113236
L2_total_cache_misses = 24590
L2_total_cache_miss_rate = 0.2172
L2_total_cache_pending_hits = 80680
L2_total_cache_reservation_fails = 0
L2_total_cache_breakdown:
	L2_cache_stats_breakdown[GLOBAL_ACC_R][HIT] = 7922
	L2_cache_stats_breakdown[GLOBAL_ACC_R][HIT_RESERVED] = 61374
	L2_cache_stats_breakdown[GLOBAL_ACC_R][MISS] = 16384
	L2_cache_stats_breakdown[GLOBAL_ACC_R][RESERVATION_FAIL] = 0
	L2_cache_stats_breakdown[LOCAL_ACC_R][HIT] = 0
	L2_cache_stats_breakdown[LOCAL_ACC_R][HIT_RESERVED] = 0
	L2_cache_stats_breakdown[LOCAL_ACC_R][MISS] = 0
	L2_cache_stats_breakdown[LOCAL_ACC_R][RESERVATION_FAIL] = 0
	L2_cache_stats_breakdown[CONST_ACC_R][HIT] = 28
	L2_cache_stats_breakdown[CONST_ACC_R][HIT_RESERVED] = 27
	L2_cache_stats_breakdown[CONST_ACC_R][MISS] = 1
	L2_cache_stats_breakdown[CONST_ACC_R][RESERVATION_FAIL] = 0
	L2_cache_stats_breakdown[TEXTURE_ACC_R][HIT] = 0
	L2_cache_stats_breakdown[TEXTURE_ACC_R][HIT_RESERVED] = 0
	L2_cache_stats_breakdown[TEXTURE_ACC_R][MISS] = 0
	L2_cache_stats_breakdown[TEXTURE_ACC_R][RESERVATION_FAIL] = 0
	L2_cache_stats_breakdown[GLOBAL_ACC_W][HIT] = 0
	L2_cache_stats_breakdown[GLOBAL_ACC_W][HIT_RESERVED] = 18944
	L2_cache_stats_breakdown[GLOBAL_ACC_W][MISS] = 8192
	L2_cache_stats_breakdown[GLOBAL_ACC_W][RESERVATION_FAIL] = 0
	L2_cache_stats_breakdown[LOCAL_ACC_W][HIT] = 0
	L2_cache_stats_breakdown[LOCAL_ACC_W][HIT_RESERVED] = 0
	L2_cache_stats_breakdown[LOCAL_ACC_W][MISS] = 0
	L2_cache_stats_breakdown[LOCAL_ACC_W][RESERVATION_FAIL] = 0
	L2_cache_stats_breakdown[L1_WRBK_ACC][HIT] = 0
	L2_cache_stats_breakdown[L1_WRBK_ACC][HIT_RESERVED] = 0
	L2_cache_stats_breakdown[L1_WRBK_ACC][MISS] = 0
	L2_cache_stats_breakdown[L1_WRBK_ACC][RESERVATION_FAIL] = 0
	L2_cache_stats_breakdown[L2_WRBK_ACC][HIT] = 0
	L2_cache_stats_breakdown[L2_WRBK_ACC][HIT_RESERVED] = 0
	L2_cache_stats_breakdown[L2_WRBK_ACC][MISS] = 0
	L2_cache_stats_breakdown[L2_WRBK_ACC][RESERVATION_FAIL] = 0
	L2_cache_stats_breakdown[INST_ACC_R][HIT] = 16
	L2_cache_stats_breakdown[INST_ACC_R][HIT_RESERVED] = 335
	L2_cache_stats_breakdown[INST_ACC_R][MISS] = 13
	L2_cache_stats_breakdown[INST_ACC_R][RESERVATION_FAIL] = 0
	L2_cache_stats_breakdown[L1_WR_ALLOC_R][HIT] = 0
	L2_cache_stats_breakdown[L1_WR_ALLOC_R][HIT_RESERVED] = 0
	L2_cache_stats_breakdown[L1_WR_ALLOC_R][MISS] = 0
	L2_cache_stats_breakdown[L1_WR_ALLOC_R][RESERVATION_FAIL] = 0
	L2_cache_stats_breakdown[L2_WR_ALLOC_R][HIT] = 0
	L2_cache_stats_breakdown[L2_WR_ALLOC_R][HIT_RESERVED] = 0
	L2_cache_stats_breakdown[L2_WR_ALLOC_R][MISS] = 0
	L2_cache_stats_breakdown[L2_WR_ALLOC_R][RESERVATION_FAIL] = 0
	L2_cache_stats_breakdown[GLOBAL_ACC_R][TOTAL_ACCESS] = 85680
	L2_cache_stats_breakdown[CONST_ACC_R][TOTAL_ACCESS] = 56
	L2_cache_stats_breakdown[GLOBAL_ACC_W][TOTAL_ACCESS] = 27136
	L2_cache_stats_breakdown[INST_ACC_R][TOTAL_ACCESS] = 364
L2_cache_data_port_util = 0.000
L2_cache_fill_port_util = 0.002

icnt_total_pkts_mem_to_simt=316084
icnt_total_pkts_simt_to_mem=168020
LD_mem_lat_dist  0 0 0 0 0 0 0 0 0 0 0 0 0 0 0 0 0 0 0 0 0 0 0 0 0 0 0
ST_mem_lat_dist  0 0 0 0 0 0 0 0 0 0 0 0 0 0 0 0 0 0 0 0 0 0 0 0 0 0 0
----------------------------Interconnect-DETAILS--------------------------------
Class 0:
Packet latency average = 14.4697
	minimum = 6
	maximum = 74
Network latency average = 12.2492
	minimum = 6
	maximum = 60
Slowest packet = 27
Flit latency average = 11.3855
	minimum = 6
	maximum = 60
Slowest flit = 27
Fragmentation average = 0
	minimum = 0
	maximum = 0
Injected packet rate average = 0.00113086
	minimum = 0.000931519 (at node 18)
	maximum = 0.00130952 (at node 41)
Accepted packet rate average = 0.00113086
	minimum = 0.000931519 (at node 18)
	maximum = 0.00130952 (at node 41)
Injected flit rate average = 0.00241732
	minimum = 0.00146082 (at node 23)
	maximum = 0.00365617 (at node 41)
Accepted flit rate average= 0.00241732
	minimum = 0.00188551 (at node 32)
	maximum = 0.00290691 (at node 7)
Injected packet length average = 2.13759
Accepted packet length average = 2.13759
Total in-flight flits = 0 (0 measured)
====== Overall Traffic Statistics ======
====== Traffic class 0 ======
Packet latency average = 14.4697 (1 samples)
	minimum = 6 (1 samples)
	maximum = 74 (1 samples)
Network latency average = 12.2492 (1 samples)
	minimum = 6 (1 samples)
	maximum = 60 (1 samples)
Flit latency average = 11.3855 (1 samples)
	minimum = 6 (1 samples)
	maximum = 60 (1 samples)
Fragmentation average = 0 (1 samples)
	minimum = 0 (1 samples)
	maximum = 0 (1 samples)
Injected packet rate average = 0.00113086 (1 samples)
	minimum = 0.000931519 (1 samples)
	maximum = 0.00130952 (1 samples)
Accepted packet rate average = 0.00113086 (1 samples)
	minimum = 0.000931519 (1 samples)
	maximum = 0.00130952 (1 samples)
Injected flit rate average = 0.00241732 (1 samples)
	minimum = 0.00146082 (1 samples)
	maximum = 0.00365617 (1 samples)
Accepted flit rate average = 0.00241732 (1 samples)
	minimum = 0.00188551 (1 samples)
	maximum = 0.00290691 (1 samples)
Injected packet size average = 2.13759 (1 samples)
Accepted packet size average = 2.13759 (1 samples)
Hops average = 1 (1 samples)
----------------------------END-of-Interconnect-DETAILS-------------------------


gpgpu_simulation_time = 0 days, 1 hrs, 51 min, 19 sec (6679 sec)
gpgpu_simulation_rate = 15535 (inst/sec)
gpgpu_simulation_rate = 333 (cycle/sec)
Ending simulation
========================================UVM statistics==============================
========================================TLB statistics(access)==============================
Shader0: Tlb_access: 3796 Tlb_hit: 248 Tlb_miss: 3548 Tlb_hit_rate: 0.065332
Shader1: Tlb_access: 4040 Tlb_hit: 272 Tlb_miss: 3768 Tlb_hit_rate: 0.067327
Shader2: Tlb_access: 4064 Tlb_hit: 162 Tlb_miss: 3902 Tlb_hit_rate: 0.039862
Shader3: Tlb_access: 4172 Tlb_hit: 294 Tlb_miss: 3878 Tlb_hit_rate: 0.070470
Shader4: Tlb_access: 4120 Tlb_hit: 340 Tlb_miss: 3780 Tlb_hit_rate: 0.082524
Shader5: Tlb_access: 3880 Tlb_hit: 224 Tlb_miss: 3656 Tlb_hit_rate: 0.057732
Shader6: Tlb_access: 4100 Tlb_hit: 120 Tlb_miss: 3980 Tlb_hit_rate: 0.029268
Shader7: Tlb_access: 4068 Tlb_hit: 432 Tlb_miss: 3636 Tlb_hit_rate: 0.106195
Shader8: Tlb_access: 4140 Tlb_hit: 178 Tlb_miss: 3962 Tlb_hit_rate: 0.042995
Shader9: Tlb_access: 4184 Tlb_hit: 292 Tlb_miss: 3892 Tlb_hit_rate: 0.069790
Shader10: Tlb_access: 3948 Tlb_hit: 488 Tlb_miss: 3460 Tlb_hit_rate: 0.123607
Shader11: Tlb_access: 4104 Tlb_hit: 184 Tlb_miss: 3920 Tlb_hit_rate: 0.044834
Shader12: Tlb_access: 4176 Tlb_hit: 344 Tlb_miss: 3832 Tlb_hit_rate: 0.082375
Shader13: Tlb_access: 4156 Tlb_hit: 384 Tlb_miss: 3772 Tlb_hit_rate: 0.092397
Shader14: Tlb_access: 3980 Tlb_hit: 192 Tlb_miss: 3788 Tlb_hit_rate: 0.048241
Shader15: Tlb_access: 3904 Tlb_hit: 384 Tlb_miss: 3520 Tlb_hit_rate: 0.098361
Shader16: Tlb_access: 4164 Tlb_hit: 256 Tlb_miss: 3908 Tlb_hit_rate: 0.061479
Shader17: Tlb_access: 4168 Tlb_hit: 360 Tlb_miss: 3808 Tlb_hit_rate: 0.086372
Shader18: Tlb_access: 3716 Tlb_hit: 264 Tlb_miss: 3452 Tlb_hit_rate: 0.071044
Shader19: Tlb_access: 3912 Tlb_hit: 236 Tlb_miss: 3676 Tlb_hit_rate: 0.060327
Shader20: Tlb_access: 4024 Tlb_hit: 240 Tlb_miss: 3784 Tlb_hit_rate: 0.059642
Shader21: Tlb_access: 3976 Tlb_hit: 312 Tlb_miss: 3664 Tlb_hit_rate: 0.078471
Shader22: Tlb_access: 3964 Tlb_hit: 386 Tlb_miss: 3578 Tlb_hit_rate: 0.097376
Shader23: Tlb_access: 3852 Tlb_hit: 292 Tlb_miss: 3560 Tlb_hit_rate: 0.075805
Shader24: Tlb_access: 4112 Tlb_hit: 422 Tlb_miss: 3690 Tlb_hit_rate: 0.102626
Shader25: Tlb_access: 4016 Tlb_hit: 164 Tlb_miss: 3852 Tlb_hit_rate: 0.040837
Shader26: Tlb_access: 3956 Tlb_hit: 160 Tlb_miss: 3796 Tlb_hit_rate: 0.040445
Shader27: Tlb_access: 4124 Tlb_hit: 328 Tlb_miss: 3796 Tlb_hit_rate: 0.079534
Tlb_tot_access: 112816 Tlb_tot_hit: 7958, Tlb_tot_miss: 104858, Tlb_tot_hit_rate: 0.070540
========================================TLB statistics(validate)==============================
Shader0: Tlb_validate: 712 Tlb_invalidate: 232 Tlb_evict: 0 Tlb_page_evict: 232
Shader1: Tlb_validate: 642 Tlb_invalidate: 204 Tlb_evict: 0 Tlb_page_evict: 204
Shader2: Tlb_validate: 698 Tlb_invalidate: 226 Tlb_evict: 0 Tlb_page_evict: 226
Shader3: Tlb_validate: 674 Tlb_invalidate: 216 Tlb_evict: 0 Tlb_page_evict: 216
Shader4: Tlb_validate: 656 Tlb_invalidate: 210 Tlb_evict: 0 Tlb_page_evict: 210
Shader5: Tlb_validate: 712 Tlb_invalidate: 232 Tlb_evict: 0 Tlb_page_evict: 232
Shader6: Tlb_validate: 652 Tlb_invalidate: 208 Tlb_evict: 0 Tlb_page_evict: 208
Shader7: Tlb_validate: 754 Tlb_invalidate: 250 Tlb_evict: 0 Tlb_page_evict: 250
Shader8: Tlb_validate: 740 Tlb_invalidate: 244 Tlb_evict: 0 Tlb_page_evict: 244
Shader9: Tlb_validate: 688 Tlb_invalidate: 222 Tlb_evict: 0 Tlb_page_evict: 222
Shader10: Tlb_validate: 652 Tlb_invalidate: 208 Tlb_evict: 0 Tlb_page_evict: 208
Shader11: Tlb_validate: 712 Tlb_invalidate: 232 Tlb_evict: 0 Tlb_page_evict: 232
Shader12: Tlb_validate: 670 Tlb_invalidate: 214 Tlb_evict: 0 Tlb_page_evict: 214
Shader13: Tlb_validate: 712 Tlb_invalidate: 232 Tlb_evict: 0 Tlb_page_evict: 232
Shader14: Tlb_validate: 684 Tlb_invalidate: 220 Tlb_evict: 0 Tlb_page_evict: 220
Shader15: Tlb_validate: 712 Tlb_invalidate: 232 Tlb_evict: 0 Tlb_page_evict: 232
Shader16: Tlb_validate: 698 Tlb_invalidate: 226 Tlb_evict: 0 Tlb_page_evict: 226
Shader17: Tlb_validate: 740 Tlb_invalidate: 244 Tlb_evict: 0 Tlb_page_evict: 244
Shader18: Tlb_validate: 754 Tlb_invalidate: 250 Tlb_evict: 0 Tlb_page_evict: 250
Shader19: Tlb_validate: 684 Tlb_invalidate: 220 Tlb_evict: 0 Tlb_page_evict: 220
Shader20: Tlb_validate: 712 Tlb_invalidate: 232 Tlb_evict: 0 Tlb_page_evict: 232
Shader21: Tlb_validate: 688 Tlb_invalidate: 222 Tlb_evict: 0 Tlb_page_evict: 222
Shader22: Tlb_validate: 740 Tlb_invalidate: 244 Tlb_evict: 0 Tlb_page_evict: 244
Shader23: Tlb_validate: 670 Tlb_invalidate: 214 Tlb_evict: 0 Tlb_page_evict: 214
Shader24: Tlb_validate: 740 Tlb_invalidate: 244 Tlb_evict: 0 Tlb_page_evict: 244
Shader25: Tlb_validate: 680 Tlb_invalidate: 220 Tlb_evict: 0 Tlb_page_evict: 220
Shader26: Tlb_validate: 754 Tlb_invalidate: 250 Tlb_evict: 0 Tlb_page_evict: 250
Shader27: Tlb_validate: 642 Tlb_invalidate: 202 Tlb_evict: 0 Tlb_page_evict: 202
Tlb_tot_valiate: 19572 Tlb_invalidate: 6350, Tlb_tot_evict: 0, Tlb_tot_evict page: 6350
========================================TLB statistics(threshing)==============================
Shader0: Total 0
Shader1: Total 0
Shader2: Total 0
Shader3: Total 0
Shader4: Total 0
Shader5: Total 0
Shader6: Total 0
Shader7: Total 0
Shader8: Total 0
Shader9: Total 0
Shader10: Total 0
Shader11: Total 0
Shader12: Total 0
Shader13: Total 0
Shader14: Total 0
Shader15: Total 0
Shader16: Total 0
Shader17: Total 0
Shader18: Total 0
Shader19: Total 0
Shader20: Total 0
Shader21: Total 0
Shader22: Total 0
Shader23: Total 0
Shader24: Total 0
Shader25: Total 0
Shader26: Total 0
Shader27: Total 0
Tlb_tot_thresh: 0
========================================Page fault statistics==============================
Shader0: Page_table_access:3548 Page_hit: 72 Page_miss: 3476 Page_hit_rate: 0.020293
Shader1: Page_table_access:3768 Page_hit: 264 Page_miss: 3504 Page_hit_rate: 0.070064
Shader2: Page_table_access:3902 Page_hit: 206 Page_miss: 3696 Page_hit_rate: 0.052793
Shader3: Page_table_access:3878 Page_hit: 266 Page_miss: 3612 Page_hit_rate: 0.068592
Shader4: Page_table_access:3780 Page_hit: 60 Page_miss: 3720 Page_hit_rate: 0.015873
Shader5: Page_table_access:3656 Page_hit: 136 Page_miss: 3520 Page_hit_rate: 0.037199
Shader6: Page_table_access:3980 Page_hit: 216 Page_miss: 3764 Page_hit_rate: 0.054271
Shader7: Page_table_access:3636 Page_hit: 48 Page_miss: 3588 Page_hit_rate: 0.013201
Shader8: Page_table_access:3962 Page_hit: 182 Page_miss: 3780 Page_hit_rate: 0.045936
Shader9: Page_table_access:3892 Page_hit: 92 Page_miss: 3800 Page_hit_rate: 0.023638
Shader10: Page_table_access:3460 Page_hit: 0 Page_miss: 3460 Page_hit_rate: 0.000000
Shader11: Page_table_access:3920 Page_hit: 176 Page_miss: 3744 Page_hit_rate: 0.044898
Shader12: Page_table_access:3832 Page_hit: 16 Page_miss: 3816 Page_hit_rate: 0.004175
Shader13: Page_table_access:3772 Page_hit: 48 Page_miss: 3724 Page_hit_rate: 0.012725
Shader14: Page_table_access:3788 Page_hit: 168 Page_miss: 3620 Page_hit_rate: 0.044351
Shader15: Page_table_access:3520 Page_hit: 0 Page_miss: 3520 Page_hit_rate: 0.000000
Shader16: Page_table_access:3908 Page_hit: 120 Page_miss: 3788 Page_hit_rate: 0.030706
Shader17: Page_table_access:3808 Page_hit: 128 Page_miss: 3680 Page_hit_rate: 0.033613
Shader18: Page_table_access:3452 Page_hit: 48 Page_miss: 3404 Page_hit_rate: 0.013905
Shader19: Page_table_access:3676 Page_hit: 132 Page_miss: 3544 Page_hit_rate: 0.035909
Shader20: Page_table_access:3784 Page_hit: 80 Page_miss: 3704 Page_hit_rate: 0.021142
Shader21: Page_table_access:3664 Page_hit: 48 Page_miss: 3616 Page_hit_rate: 0.013100
Shader22: Page_table_access:3578 Page_hit: 14 Page_miss: 3564 Page_hit_rate: 0.003913
Shader23: Page_table_access:3560 Page_hit: 76 Page_miss: 3484 Page_hit_rate: 0.021348
Shader24: Page_table_access:3690 Page_hit: 114 Page_miss: 3576 Page_hit_rate: 0.030894
Shader25: Page_table_access:3852 Page_hit: 140 Page_miss: 3712 Page_hit_rate: 0.036345
Shader26: Page_table_access:3796 Page_hit: 240 Page_miss: 3556 Page_hit_rate: 0.063224
Shader27: Page_table_access:3796 Page_hit: 152 Page_miss: 3644 Page_hit_rate: 0.040042
Page_talbe_tot_access: 104858 Page_tot_hit: 3242, Page_tot_miss 101616, Page_tot_hit_rate: 0.030918 Page_tot_fault: 768 Page_tot_pending: 100848
Total_memory_access_page_fault: 768, Average_latency: 1225472.875000
========================================Page threshing statistics==============================
Page_validate: 768 Page_evict_diry: 0 Page_evict_not_diry: 0
Page_tot_thresh: 0
========================================Memory access statistics==============================
========================================Prefetch statistics==============================
Tot_page_hit: 0, Tot_page_miss: 0, Tot_page_fault: 0
Avg_page_latency: 0.000000, Avg_prefetch_size: -nan, Avg_prefetch_latency: 0.000000
========================================Rdma statistics==============================
Rdma_read: 0
Rdma_migration_read 0
Rdma_migration_write 0
========================================PCI-e statistics==============================
Pcie_read_utilization: 0.136211
[0-25]: 1.000000, [26-50]: 0.000000, [51-75]: 0.000000, [76-100]: 0.000000
Pcie_write_utilization: 0.000000
[0-25]: -nan, [26-50]: -nan, [51-75]: -nan, [76-100]: -nan
F:   222150----T:  2224795 	 	 	 Kl: 1 	 Sm: 0 	 T: kernel_launch(1352.224854)
F:   223850----T:   226455 	 St: c000b000 Sz: 4096 	 Sm: 0 	 T: memcpy_h2d(1.758947)
F:   226455----T:   229060 	 St: c0011000 Sz: 4096 	 Sm: 0 	 T: memcpy_h2d(1.758947)
F:   229060----T:   231665 	 St: c0013000 Sz: 4096 	 Sm: 0 	 T: memcpy_h2d(1.758947)
F:   231665----T:   234270 	 St: c0001000 Sz: 4096 	 Sm: 0 	 T: memcpy_h2d(1.758947)
F:   234270----T:   236875 	 St: c0003000 Sz: 4096 	 Sm: 0 	 T: memcpy_h2d(1.758947)
F:   236875----T:   239480 	 St: c000d000 Sz: 4096 	 Sm: 0 	 T: memcpy_h2d(1.758947)
F:   239480----T:   242085 	 St: c0005000 Sz: 4096 	 Sm: 0 	 T: memcpy_h2d(1.758947)
F:   242085----T:   244690 	 St: c0015000 Sz: 4096 	 Sm: 0 	 T: memcpy_h2d(1.758947)
F:   244690----T:   247295 	 St: c0000000 Sz: 4096 	 Sm: 0 	 T: memcpy_h2d(1.758947)
F:   247295----T:   249900 	 St: c0017000 Sz: 4096 	 Sm: 0 	 T: memcpy_h2d(1.758947)
F:   249900----T:   252505 	 St: c000f000 Sz: 4096 	 Sm: 0 	 T: memcpy_h2d(1.758947)
F:   252505----T:   255110 	 St: c0007000 Sz: 4096 	 Sm: 0 	 T: memcpy_h2d(1.758947)
F:   255110----T:   257715 	 St: c0002000 Sz: 4096 	 Sm: 0 	 T: memcpy_h2d(1.758947)
F:   257715----T:   260320 	 St: c0009000 Sz: 4096 	 Sm: 0 	 T: memcpy_h2d(1.758947)
F:   260320----T:   262925 	 St: c0006000 Sz: 4096 	 Sm: 0 	 T: memcpy_h2d(1.758947)
F:   262925----T:   265530 	 St: c0004000 Sz: 4096 	 Sm: 0 	 T: memcpy_h2d(1.758947)
[...]
F:  1653995----T:  1656600 	 St: c00bd000 Sz: 4096 	 Sm: 0 	 T: memcpy_h2d(1.758947)
F:  1656600----T:  1659205 	 St: c00bf000 Sz: 4096 	 Sm: 0 	 T: memcpy_h2d(1.758947)
F:  1659205----T:  1661810 	 St: c00bc000 Sz: 4096 	 Sm: 0 	 T: memcpy_h2d(1.758947)
F:  1661810----T:  1664415 	 St: c00be000 Sz: 4096 	 Sm: 0 	 T: memcpy_h2d(1.758947)
F:  1664415----T:  1667020 	 St: c00c0000 Sz: 4096 	 Sm: 0 	 T: memcpy_h2d(1.758947)
F:  1667020----T:  1669625 	 St: c00c1000 Sz: 4096 	 Sm: 0 	 T: memcpy_h2d(1.758947)
F:  1669625----T:  1672230 	 St: c00c3000 Sz: 4096 	 Sm: 0 	 T: memcpy_h2d(1.758947)
F:  1672230----T:  1674835 	 St: c00c5000 Sz: 4096 	 Sm: 0 	 T: memcpy_h2d(1.758947)
F:  1674835----T:  1677440 	 St: c00c2000 Sz: 4096 	 Sm: 0 	 T: memcpy_h2d(1.758947)
F:  1677440----T:  1680045 	 St: c00c4000 Sz: 4096 	 Sm: 0 	 T: memcpy_h2d(1.758947)
F:  1680045----T:  1682650 	 St: c00c6000 Sz: 4096 	 Sm: 0 	 T: memcpy_h2d(1.758947)
F:  1682650----T:  1685255 	 St: c00c7000 Sz: 4096 	 Sm: 0 	 T: memcpy_h2d(1.758947)
F:  1685255----T:  1687860 	 St: c00c9000 Sz: 4096 	 Sm: 0 	 T: memcpy_h2d(1.758947)
F:  1687860----T:  1690465 	 St: c00cb000 Sz: 4096 	 Sm: 0 	 T: memcpy_h2d(1.758947)
F:  1690465----T:  1693070 	 St: c00c8000 Sz: 4096 	 Sm: 0 	 T: memcpy_h2d(1.758947)
F:  1693070----T:  1695675 	 St: c00ca000 Sz: 4096 	 Sm: 0 	 T: memcpy_h2d(1.758947)
F:  1695675----T:  1698280 	 St: c00cc000 Sz: 4096 	 Sm: 0 	 T: memcpy_h2d(1.758947)
F:  1698280----T:  1700885 	 St: c00cd000 Sz: 4096 	 Sm: 0 	 T: memcpy_h2d(1.758947)
F:  1700885----T:  1703490 	 St: c00cf000 Sz: 4096 	 Sm: 0 	 T: memcpy_h2d(1.758947)
F:  1703490----T:  1706095 	 St: c00d1000 Sz: 4096 	 Sm: 0 	 T: memcpy_h2d(1.758947)
F:  1706095----T:  1708700 	 St: c00ce000 Sz: 4096 	 Sm: 0 	 T: memcpy_h2d(1.758947)
F:  1708700----T:  1711305 	 St: c00d0000 Sz: 4096 	 Sm: 0 	 T: memcpy_h2d(1.758947)
F:  1711305----T:  1713910 	 St: c00d2000 Sz: 4096 	 Sm: 0 	 T: memcpy_h2d(1.758947)
F:  1713910----T:  1716515 	 St: c02b5000 Sz: 4096 	 Sm: 0 	 T: memcpy_h2d(1.758947)
F:  1716515----T:  1719120 	 St: c02b7000 Sz: 4096 	 Sm: 0 	 T: memcpy_h2d(1.758947)
F:  1719120----T:  1721725 	 St: c02b9000 Sz: 4096 	 Sm: 0 	 T: memcpy_h2d(1.758947)
F:  1721725----T:  1724330 	 St: c02b6000 Sz: 4096 	 Sm: 0 	 T: memcpy_h2d(1.758947)
F:  1724330----T:  1726935 	 St: c02b8000 Sz: 4096 	 Sm: 0 	 T: memcpy_h2d(1.758947)
F:  1726935----T:  1729540 	 St: c02ba000 Sz: 4096 	 Sm: 0 	 T: memcpy_h2d(1.758947)
F:  1729540----T:  1732145 	 St: c02bb000 Sz: 4096 	 Sm: 0 	 T: memcpy_h2d(1.758947)
F:  1732145----T:  1734750 	 St: c02bd000 Sz: 4096 	 Sm: 0 	 T: memcpy_h2d(1.758947)
F:  1734750----T:  1737355 	 St: c02bf000 Sz: 4096 	 Sm: 0 	 T: memcpy_h2d(1.758947)
F:  1737355----T:  1739960 	 St: c02bc000 Sz: 4096 	 Sm: 0 	 T: memcpy_h2d(1.758947)
F:  1739960----T:  1742565 	 St: c02be000 Sz: 4096 	 Sm: 0 	 T: memcpy_h2d(1.758947)
F:  1742565----T:  1745170 	 St: c02c0000 Sz: 4096 	 Sm: 0 	 T: memcpy_h2d(1.758947)
F:  1745170----T:  1747775 	 St: c02c1000 Sz: 4096 	 Sm: 0 	 T: memcpy_h2d(1.758947)
F:  1747775----T:  1750380 	 St: c02c3000 Sz: 4096 	 Sm: 0 	 T: memcpy_h2d(1.758947)
F:  1750380----T:  1752985 	 St: c02c5000 Sz: 4096 	 Sm: 0 	 T: memcpy_h2d(1.758947)
F:  1752985----T:  1755590 	 St: c02c2000 Sz: 4096 	 Sm: 0 	 T: memcpy_h2d(1.758947)
F:  1755590----T:  1758195 	 St: c02c4000 Sz: 4096 	 Sm: 0 	 T: memcpy_h2d(1.758947)
F:  1758195----T:  1760800 	 St: c02c6000 Sz: 4096 	 Sm: 0 	 T: memcpy_h2d(1.758947)
F:  1760800----T:  1763405 	 St: c02c7000 Sz: 4096 	 Sm: 0 	 T: memcpy_h2d(1.758947)
F:  1763405----T:  1766010 	 St: c02c9000 Sz: 4096 	 Sm: 0 	 T: memcpy_h2d(1.758947)
F:  1766010----T:  1768615 	 St: c02cb000 Sz: 4096 	 Sm: 0 	 T: memcpy_h2d(1.758947)
F:  1768615----T:  1771220 	 St: c02c8000 Sz: 4096 	 Sm: 0 	 T: memcpy_h2d(1.758947)
F:  1771220----T:  1773825 	 St: c02ca000 Sz: 4096 	 Sm: 0 	 T: memcpy_h2d(1.758947)
F:  1773825----T:  1776430 	 St: c02cc000 Sz: 4096 	 Sm: 0 	 T: memcpy_h2d(1.758947)
F:  1776430----T:  1779035 	 St: c02cd000 Sz: 4096 	 Sm: 0 	 T: memcpy_h2d(1.758947)
F:  1779035----T:  1781640 	 St: c02cf000 Sz: 4096 	 Sm: 0 	 T: memcpy_h2d(1.758947)
F:  1781640----T:  1784245 	 St: c02d1000 Sz: 4096 	 Sm: 0 	 T: memcpy_h2d(1.758947)
F:  1784245----T:  1786850 	 St: c02ce000 Sz: 4096 	 Sm: 0 	 T: memcpy_h2d(1.758947)
F:  1786850----T:  1789455 	 St: c02d0000 Sz: 4096 	 Sm: 0 	 T: memcpy_h2d(1.758947)
F:  1789455----T:  1792060 	 St: c02d2000 Sz: 4096 	 Sm: 0 	 T: memcpy_h2d(1.758947)
F:  1792060----T:  1794665 	 St: c01b4000 Sz: 4096 	 Sm: 0 	 T: memcpy_h2d(1.758947)
F:  1794665----T:  1797270 	 St: c01b6000 Sz: 4096 	 Sm: 0 	 T: memcpy_h2d(1.758947)
F:  1797270----T:  1799875 	 St: c01b8000 Sz: 4096 	 Sm: 0 	 T: memcpy_h2d(1.758947)
F:  1799875----T:  1802480 	 St: c01b5000 Sz: 4096 	 Sm: 0 	 T: memcpy_h2d(1.758947)
F:  1802480----T:  1805085 	 St: c01b7000 Sz: 4096 	 Sm: 0 	 T: memcpy_h2d(1.758947)
F:  1805085----T:  1807690 	 St: c01b9000 Sz: 4096 	 Sm: 0 	 T: memcpy_h2d(1.758947)
F:  1807690----T:  1810295 	 St: c01ba000 Sz: 4096 	 Sm: 0 	 T: memcpy_h2d(1.758947)
F:  1810295----T:  1812900 	 St: c01bc000 Sz: 4096 	 Sm: 0 	 T: memcpy_h2d(1.758947)
F:  1812900----T:  1815505 	 St: c01be000 Sz: 4096 	 Sm: 0 	 T: memcpy_h2d(1.758947)
F:  1815505----T:  1818110 	 St: c01bf000 Sz: 4096 	 Sm: 0 	 T: memcpy_h2d(1.758947)
F:  1818110----T:  1820715 	 St: c01bb000 Sz: 4096 	 Sm: 0 	 T: memcpy_h2d(1.758947)
F:  1820715----T:  1823320 	 St: c01bd000 Sz: 4096 	 Sm: 0 	 T: memcpy_h2d(1.758947)
F:  1823320----T:  1825925 	 St: c01c0000 Sz: 4096 	 Sm: 0 	 T: memcpy_h2d(1.758947)
F:  1825925----T:  1828530 	 St: c01c2000 Sz: 4096 	 Sm: 0 	 T: memcpy_h2d(1.758947)
F:  1828530----T:  1831135 	 St: c01c3000 Sz: 4096 	 Sm: 0 	 T: memcpy_h2d(1.758947)
F:  1831135----T:  1833740 	 St: c01c4000 Sz: 4096 	 Sm: 0 	 T: memcpy_h2d(1.758947)
F:  1833740----T:  1836345 	 St: c01c5000 Sz: 4096 	 Sm: 0 	 T: memcpy_h2d(1.758947)
F:  1836345----T:  1838950 	 St: c01c1000 Sz: 4096 	 Sm: 0 	 T: memcpy_h2d(1.758947)
F:  1838950----T:  1841555 	 St: c01c6000 Sz: 4096 	 Sm: 0 	 T: memcpy_h2d(1.758947)
F:  1841555----T:  1844160 	 St: c01c8000 Sz: 4096 	 Sm: 0 	 T: memcpy_h2d(1.758947)
F:  1844160----T:  1846765 	 St: c01c9000 Sz: 4096 	 Sm: 0 	 T: memcpy_h2d(1.758947)
F:  1846765----T:  1849370 	 St: c01ca000 Sz: 4096 	 Sm: 0 	 T: memcpy_h2d(1.758947)
F:  1849370----T:  1851975 	 St: c01cb000 Sz: 4096 	 Sm: 0 	 T: memcpy_h2d(1.758947)
F:  1851975----T:  1854580 	 St: c01c7000 Sz: 4096 	 Sm: 0 	 T: memcpy_h2d(1.758947)
F:  1854580----T:  1857185 	 St: c01cc000 Sz: 4096 	 Sm: 0 	 T: memcpy_h2d(1.758947)
F:  1857185----T:  1859790 	 St: c01ce000 Sz: 4096 	 Sm: 0 	 T: memcpy_h2d(1.758947)
F:  1859790----T:  1862395 	 St: c01cf000 Sz: 4096 	 Sm: 0 	 T: memcpy_h2d(1.758947)
F:  1862395----T:  1865000 	 St: c01d0000 Sz: 4096 	 Sm: 0 	 T: memcpy_h2d(1.758947)
F:  1865000----T:  1867605 	 St: c01d1000 Sz: 4096 	 Sm: 0 	 T: memcpy_h2d(1.758947)
F:  1867605----T:  1870210 	 St: c01cd000 Sz: 4096 	 Sm: 0 	 T: memcpy_h2d(1.758947)
F:  1870210----T:  1872815 	 St: c00d3000 Sz: 4096 	 Sm: 0 	 T: memcpy_h2d(1.758947)
F:  1872815----T:  1875420 	 St: c00d5000 Sz: 4096 	 Sm: 0 	 T: memcpy_h2d(1.758947)
F:  1875420----T:  1878025 	 St: c00d7000 Sz: 4096 	 Sm: 0 	 T: memcpy_h2d(1.758947)
F:  1878025----T:  1880630 	 St: c00d4000 Sz: 4096 	 Sm: 0 	 T: memcpy_h2d(1.758947)
F:  1880630----T:  1883235 	 St: c00d6000 Sz: 4096 	 Sm: 0 	 T: memcpy_h2d(1.758947)
F:  1883235----T:  1885840 	 St: c00d8000 Sz: 4096 	 Sm: 0 	 T: memcpy_h2d(1.758947)
F:  1885840----T:  1888445 	 St: c00d9000 Sz: 4096 	 Sm: 0 	 T: memcpy_h2d(1.758947)
F:  1888445----T:  1891050 	 St: c00db000 Sz: 4096 	 Sm: 0 	 T: memcpy_h2d(1.758947)
F:  1891050----T:  1893655 	 St: c00dd000 Sz: 4096 	 Sm: 0 	 T: memcpy_h2d(1.758947)
F:  1893655----T:  1896260 	 St: c00da000 Sz: 4096 	 Sm: 0 	 T: memcpy_h2d(1.758947)
F:  1896260----T:  1898865 	 St: c00dc000 Sz: 4096 	 Sm: 0 	 T: memcpy_h2d(1.758947)
F:  1898865----T:  1901470 	 St: c00de000 Sz: 4096 	 Sm: 0 	 T: memcpy_h2d(1.758947)
F:  1901470----T:  1904075 	 St: c00df000 Sz: 4096 	 Sm: 0 	 T: memcpy_h2d(1.758947)
F:  1904075----T:  1906680 	 St: c00e1000 Sz: 4096 	 Sm: 0 	 T: memcpy_h2d(1.758947)
F:  1906680----T:  1909285 	 St: c00e3000 Sz: 4096 	 Sm: 0 	 T: memcpy_h2d(1.758947)
F:  1909285----T:  1911890 	 St: c00e0000 Sz: 4096 	 Sm: 0 	 T: memcpy_h2d(1.758947)
F:  1911890----T:  1914495 	 St: c00e2000 Sz: 4096 	 Sm: 0 	 T: memcpy_h2d(1.758947)
F:  1914495----T:  1917100 	 St: c00e4000 Sz: 4096 	 Sm: 0 	 T: memcpy_h2d(1.758947)
F:  1917100----T:  1919705 	 St: c00e5000 Sz: 4096 	 Sm: 0 	 T: memcpy_h2d(1.758947)
F:  1919705----T:  1922310 	 St: c00e7000 Sz: 4096 	 Sm: 0 	 T: memcpy_h2d(1.758947)
F:  1922310----T:  1924915 	 St: c00e9000 Sz: 4096 	 Sm: 0 	 T: memcpy_h2d(1.758947)
F:  1924915----T:  1927520 	 St: c00e6000 Sz: 4096 	 Sm: 0 	 T: memcpy_h2d(1.758947)
F:  1927520----T:  1930125 	 St: c00e8000 Sz: 4096 	 Sm: 0 	 T: memcpy_h2d(1.758947)
F:  1930125----T:  1932730 	 St: c00ea000 Sz: 4096 	 Sm: 0 	 T: memcpy_h2d(1.758947)
F:  1932730----T:  1935335 	 St: c00eb000 Sz: 4096 	 Sm: 0 	 T: memcpy_h2d(1.758947)
F:  1935335----T:  1937940 	 St: c00ed000 Sz: 4096 	 Sm: 0 	 T: memcpy_h2d(1.758947)
F:  1937940----T:  1940545 	 St: c00ef000 Sz: 4096 	 Sm: 0 	 T: memcpy_h2d(1.758947)
F:  1940545----T:  1943150 	 St: c00ec000 Sz: 4096 	 Sm: 0 	 T: memcpy_h2d(1.758947)
F:  1943150----T:  1945755 	 St: c00ee000 Sz: 4096 	 Sm: 0 	 T: memcpy_h2d(1.758947)
F:  1945755----T:  1948360 	 St: c00f0000 Sz: 4096 	 Sm: 0 	 T: memcpy_h2d(1.758947)
F:  1948360----T:  1950965 	 St: c02d3000 Sz: 4096 	 Sm: 0 	 T: memcpy_h2d(1.758947)
F:  1950965----T:  1953570 	 St: c02d5000 Sz: 4096 	 Sm: 0 	 T: memcpy_h2d(1.758947)
F:  1953570----T:  1956175 	 St: c02d7000 Sz: 4096 	 Sm: 0 	 T: memcpy_h2d(1.758947)
F:  1956175----T:  1958780 	 St: c02d4000 Sz: 4096 	 Sm: 0 	 T: memcpy_h2d(1.758947)
F:  1958780----T:  1961385 	 St: c02d6000 Sz: 4096 	 Sm: 0 	 T: memcpy_h2d(1.758947)
F:  1961385----T:  1963990 	 St: c02d8000 Sz: 4096 	 Sm: 0 	 T: memcpy_h2d(1.758947)
F:  1963990----T:  1966595 	 St: c02d9000 Sz: 4096 	 Sm: 0 	 T: memcpy_h2d(1.758947)
F:  1966595----T:  1969200 	 St: c02db000 Sz: 4096 	 Sm: 0 	 T: memcpy_h2d(1.758947)
F:  1969200----T:  1971805 	 St: c02dd000 Sz: 4096 	 Sm: 0 	 T: memcpy_h2d(1.758947)
F:  1971805----T:  1974410 	 St: c02da000 Sz: 4096 	 Sm: 0 	 T: memcpy_h2d(1.758947)
F:  1974410----T:  1977015 	 St: c02dc000 Sz: 4096 	 Sm: 0 	 T: memcpy_h2d(1.758947)
F:  1977015----T:  1979620 	 St: c02de000 Sz: 4096 	 Sm: 0 	 T: memcpy_h2d(1.758947)
F:  1979620----T:  1982225 	 St: c02df000 Sz: 4096 	 Sm: 0 	 T: memcpy_h2d(1.758947)
F:  1982225----T:  1984830 	 St: c02e1000 Sz: 4096 	 Sm: 0 	 T: memcpy_h2d(1.758947)
F:  1984830----T:  1987435 	 St: c02e3000 Sz: 4096 	 Sm: 0 	 T: memcpy_h2d(1.758947)
F:  1987435----T:  1990040 	 St: c02e0000 Sz: 4096 	 Sm: 0 	 T: memcpy_h2d(1.758947)
F:  1990040----T:  1992645 	 St: c02e2000 Sz: 4096 	 Sm: 0 	 T: memcpy_h2d(1.758947)
F:  1992645----T:  1995250 	 St: c02e4000 Sz: 4096 	 Sm: 0 	 T: memcpy_h2d(1.758947)
F:  1995250----T:  1997855 	 St: c02e5000 Sz: 4096 	 Sm: 0 	 T: memcpy_h2d(1.758947)
F:  1997855----T:  2000460 	 St: c02e7000 Sz: 4096 	 Sm: 0 	 T: memcpy_h2d(1.758947)
F:  2000460----T:  2003065 	 St: c02e9000 Sz: 4096 	 Sm: 0 	 T: memcpy_h2d(1.758947)
F:  2003065----T:  2005670 	 St: c02e6000 Sz: 4096 	 Sm: 0 	 T: memcpy_h2d(1.758947)
F:  2005670----T:  2008275 	 St: c02e8000 Sz: 4096 	 Sm: 0 	 T: memcpy_h2d(1.758947)
F:  2008275----T:  2010880 	 St: c02ea000 Sz: 4096 	 Sm: 0 	 T: memcpy_h2d(1.758947)
F:  2010880----T:  2013485 	 St: c02eb000 Sz: 4096 	 Sm: 0 	 T: memcpy_h2d(1.758947)
F:  2013485----T:  2016090 	 St: c02ed000 Sz: 4096 	 Sm: 0 	 T: memcpy_h2d(1.758947)
F:  2016090----T:  2018695 	 St: c02ef000 Sz: 4096 	 Sm: 0 	 T: memcpy_h2d(1.758947)
F:  2018695----T:  2021300 	 St: c02ec000 Sz: 4096 	 Sm: 0 	 T: memcpy_h2d(1.758947)
F:  2021300----T:  2023905 	 St: c02ee000 Sz: 4096 	 Sm: 0 	 T: memcpy_h2d(1.758947)
F:  2023905----T:  2026510 	 St: c02f0000 Sz: 4096 	 Sm: 0 	 T: memcpy_h2d(1.758947)
F:  2026510----T:  2029115 	 St: c01d2000 Sz: 4096 	 Sm: 0 	 T: memcpy_h2d(1.758947)
F:  2029115----T:  2031720 	 St: c01d4000 Sz: 4096 	 Sm: 0 	 T: memcpy_h2d(1.758947)
F:  2031720----T:  2034325 	 St: c01d5000 Sz: 4096 	 Sm: 0 	 T: memcpy_h2d(1.758947)
F:  2034325----T:  2036930 	 St: c01d6000 Sz: 4096 	 Sm: 0 	 T: memcpy_h2d(1.758947)
F:  2036930----T:  2039535 	 St: c01d7000 Sz: 4096 	 Sm: 0 	 T: memcpy_h2d(1.758947)
F:  2039535----T:  2042140 	 St: c01d3000 Sz: 4096 	 Sm: 0 	 T: memcpy_h2d(1.758947)
F:  2042140----T:  2044745 	 St: c01d8000 Sz: 4096 	 Sm: 0 	 T: memcpy_h2d(1.758947)
F:  2044745----T:  2047350 	 St: c01da000 Sz: 4096 	 Sm: 0 	 T: memcpy_h2d(1.758947)
F:  2047350----T:  2049955 	 St: c01db000 Sz: 4096 	 Sm: 0 	 T: memcpy_h2d(1.758947)
F:  2049955----T:  2052560 	 St: c01dc000 Sz: 4096 	 Sm: 0 	 T: memcpy_h2d(1.758947)
F:  2052560----T:  2055165 	 St: c01dd000 Sz: 4096 	 Sm: 0 	 T: memcpy_h2d(1.758947)
F:  2055165----T:  2057770 	 St: c01d9000 Sz: 4096 	 Sm: 0 	 T: memcpy_h2d(1.758947)
F:  2057770----T:  2060375 	 St: c01de000 Sz: 4096 	 Sm: 0 	 T: memcpy_h2d(1.758947)
F:  2060375----T:  2062980 	 St: c01e0000 Sz: 4096 	 Sm: 0 	 T: memcpy_h2d(1.758947)
F:  2062980----T:  2065585 	 St: c01e1000 Sz: 4096 	 Sm: 0 	 T: memcpy_h2d(1.758947)
F:  2065585----T:  2068190 	 St: c01e2000 Sz: 4096 	 Sm: 0 	 T: memcpy_h2d(1.758947)
F:  2068190----T:  2070795 	 St: c01e3000 Sz: 4096 	 Sm: 0 	 T: memcpy_h2d(1.758947)
F:  2070795----T:  2073400 	 St: c01df000 Sz: 4096 	 Sm: 0 	 T: memcpy_h2d(1.758947)
F:  2073400----T:  2076005 	 St: c01e4000 Sz: 4096 	 Sm: 0 	 T: memcpy_h2d(1.758947)
F:  2076005----T:  2078610 	 St: c01e6000 Sz: 4096 	 Sm: 0 	 T: memcpy_h2d(1.758947)
F:  2078610----T:  2081215 	 St: c01e8000 Sz: 4096 	 Sm: 0 	 T: memcpy_h2d(1.758947)
F:  2081215----T:  2083820 	 St: c01e5000 Sz: 4096 	 Sm: 0 	 T: memcpy_h2d(1.758947)
F:  2083820----T:  2086425 	 St: c01e7000 Sz: 4096 	 Sm: 0 	 T: memcpy_h2d(1.758947)
F:  2086425----T:  2089030 	 St: c01e9000 Sz: 4096 	 Sm: 0 	 T: memcpy_h2d(1.758947)
F:  2089030----T:  2091635 	 St: c01ea000 Sz: 4096 	 Sm: 0 	 T: memcpy_h2d(1.758947)
F:  2091635----T:  2094240 	 St: c01ec000 Sz: 4096 	 Sm: 0 	 T: memcpy_h2d(1.758947)
F:  2094240----T:  2096845 	 St: c01ed000 Sz: 4096 	 Sm: 0 	 T: memcpy_h2d(1.758947)
F:  2096845----T:  2099450 	 St: c01ee000 Sz: 4096 	 Sm: 0 	 T: memcpy_h2d(1.758947)
F:  2099450----T:  2102055 	 St: c01ef000 Sz: 4096 	 Sm: 0 	 T: memcpy_h2d(1.758947)
F:  2102055----T:  2104660 	 St: c01eb000 Sz: 4096 	 Sm: 0 	 T: memcpy_h2d(1.758947)
F:  2104660----T:  2107265 	 St: c00f1000 Sz: 4096 	 Sm: 0 	 T: memcpy_h2d(1.758947)
F:  2107265----T:  2109870 	 St: c00f3000 Sz: 4096 	 Sm: 0 	 T: memcpy_h2d(1.758947)
F:  2109870----T:  2112475 	 St: c00f5000 Sz: 4096 	 Sm: 0 	 T: memcpy_h2d(1.758947)
F:  2112475----T:  2115080 	 St: c00f2000 Sz: 4096 	 Sm: 0 	 T: memcpy_h2d(1.758947)
F:  2115080----T:  2117685 	 St: c00f4000 Sz: 4096 	 Sm: 0 	 T: memcpy_h2d(1.758947)
F:  2117685----T:  2120290 	 St: c00f6000 Sz: 4096 	 Sm: 0 	 T: memcpy_h2d(1.758947)
F:  2120290----T:  2122895 	 St: c00f7000 Sz: 4096 	 Sm: 0 	 T: memcpy_h2d(1.758947)
F:  2122895----T:  2125500 	 St: c00f9000 Sz: 4096 	 Sm: 0 	 T: memcpy_h2d(1.758947)
F:  2125500----T:  2128105 	 St: c00fb000 Sz: 4096 	 Sm: 0 	 T: memcpy_h2d(1.758947)
F:  2128105----T:  2130710 	 St: c00f8000 Sz: 4096 	 Sm: 0 	 T: memcpy_h2d(1.758947)
F:  2130710----T:  2133315 	 St: c00fa000 Sz: 4096 	 Sm: 0 	 T: memcpy_h2d(1.758947)
F:  2133315----T:  2135920 	 St: c00fc000 Sz: 4096 	 Sm: 0 	 T: memcpy_h2d(1.758947)
F:  2135920----T:  2138525 	 St: c00fd000 Sz: 4096 	 Sm: 0 	 T: memcpy_h2d(1.758947)
F:  2138525----T:  2141130 	 St: c00ff000 Sz: 4096 	 Sm: 0 	 T: memcpy_h2d(1.758947)
F:  2141130----T:  2143735 	 St: c00fe000 Sz: 4096 	 Sm: 0 	 T: memcpy_h2d(1.758947)
F:  2143735----T:  2146340 	 St: c02f1000 Sz: 4096 	 Sm: 0 	 T: memcpy_h2d(1.758947)
F:  2146340----T:  2148945 	 St: c02f3000 Sz: 4096 	 Sm: 0 	 T: memcpy_h2d(1.758947)
F:  2148945----T:  2151550 	 St: c02f5000 Sz: 4096 	 Sm: 0 	 T: memcpy_h2d(1.758947)
F:  2151550----T:  2154155 	 St: c02f2000 Sz: 4096 	 Sm: 0 	 T: memcpy_h2d(1.758947)
F:  2154155----T:  2156760 	 St: c02f4000 Sz: 4096 	 Sm: 0 	 T: memcpy_h2d(1.758947)
F:  2156760----T:  2159365 	 St: c02f6000 Sz: 4096 	 Sm: 0 	 T: memcpy_h2d(1.758947)
F:  2159365----T:  2161970 	 St: c02f7000 Sz: 4096 	 Sm: 0 	 T: memcpy_h2d(1.758947)
F:  2161970----T:  2164575 	 St: c02f9000 Sz: 4096 	 Sm: 0 	 T: memcpy_h2d(1.758947)
F:  2164575----T:  2167180 	 St: c02fb000 Sz: 4096 	 Sm: 0 	 T: memcpy_h2d(1.758947)
F:  2167180----T:  2169785 	 St: c02f8000 Sz: 4096 	 Sm: 0 	 T: memcpy_h2d(1.758947)
F:  2169785----T:  2172390 	 St: c02fa000 Sz: 4096 	 Sm: 0 	 T: memcpy_h2d(1.758947)
F:  2172390----T:  2174995 	 St: c02fc000 Sz: 4096 	 Sm: 0 	 T: memcpy_h2d(1.758947)
F:  2174995----T:  2177600 	 St: c02fd000 Sz: 4096 	 Sm: 0 	 T: memcpy_h2d(1.758947)
F:  2177600----T:  2180205 	 St: c02ff000 Sz: 4096 	 Sm: 0 	 T: memcpy_h2d(1.758947)
F:  2180205----T:  2182810 	 St: c02fe000 Sz: 4096 	 Sm: 0 	 T: memcpy_h2d(1.758947)
F:  2182810----T:  2185415 	 St: c01f0000 Sz: 4096 	 Sm: 0 	 T: memcpy_h2d(1.758947)
F:  2185415----T:  2188020 	 St: c01f2000 Sz: 4096 	 Sm: 0 	 T: memcpy_h2d(1.758947)
F:  2188020----T:  2190625 	 St: c01f3000 Sz: 4096 	 Sm: 0 	 T: memcpy_h2d(1.758947)
F:  2190625----T:  2193230 	 St: c01f4000 Sz: 4096 	 Sm: 0 	 T: memcpy_h2d(1.758947)
F:  2193230----T:  2195835 	 St: c01f5000 Sz: 4096 	 Sm: 0 	 T: memcpy_h2d(1.758947)
F:  2195835----T:  2198440 	 St: c01f1000 Sz: 4096 	 Sm: 0 	 T: memcpy_h2d(1.758947)
F:  2198440----T:  2201045 	 St: c01f6000 Sz: 4096 	 Sm: 0 	 T: memcpy_h2d(1.758947)
F:  2201045----T:  2203650 	 St: c01f8000 Sz: 4096 	 Sm: 0 	 T: memcpy_h2d(1.758947)
F:  2203650----T:  2206255 	 St: c01f9000 Sz: 4096 	 Sm: 0 	 T: memcpy_h2d(1.758947)
F:  2206255----T:  2208860 	 St: c01fa000 Sz: 4096 	 Sm: 0 	 T: memcpy_h2d(1.758947)
F:  2208860----T:  2211465 	 St: c01fb000 Sz: 4096 	 Sm: 0 	 T: memcpy_h2d(1.758947)
F:  2211465----T:  2214070 	 St: c01f7000 Sz: 4096 	 Sm: 0 	 T: memcpy_h2d(1.758947)
F:  2214070----T:  2216675 	 St: c01fe000 Sz: 4096 	 Sm: 0 	 T: memcpy_h2d(1.758947)
F:  2216675----T:  2219280 	 St: c01fc000 Sz: 4096 	 Sm: 0 	 T: memcpy_h2d(1.758947)
F:  2219280----T:  2221885 	 St: c01fd000 Sz: 4096 	 Sm: 0 	 T: memcpy_h2d(1.758947)
F:  2221885----T:  2224490 	 St: c01ff000 Sz: 4096 	 Sm: 0 	 T: memcpy_h2d(1.758947)
F:  2224795----T:  2227400 	 St: 0 Sz: 4096 	 Sm: 0 	 T: device_sync(1.758947)
F:  2224795----T:  2233035 	 St: 0 Sz: 61440 	 Sm: 0 	 T: device_sync(5.563808)
F:  2235640----T:  2238245 	 St: 0 Sz: 4096 	 Sm: 0 	 T: device_sync(1.758947)
F:  2235640----T:  2243880 	 St: 0 Sz: 61440 	 Sm: 0 	 T: device_sync(5.563808)
F:  2246485----T:  2249090 	 St: 0 Sz: 4096 	 Sm: 0 	 T: device_sync(1.758947)
F:  2246485----T:  2262180 	 St: 0 Sz: 126976 	 Sm: 0 	 T: device_sync(10.597569)
F:  2264785----T:  2267390 	 St: 0 Sz: 4096 	 Sm: 0 	 T: device_sync(1.758947)
F:  2264785----T:  2295508 	 St: 0 Sz: 258048 	 Sm: 0 	 T: device_sync(20.744766)
F:  2298113----T:  2300718 	 St: 0 Sz: 4096 	 Sm: 0 	 T: device_sync(1.758947)
F:  2298113----T:  2358949 	 St: 0 Sz: 520192 	 Sm: 0 	 T: device_sync(41.077652)
Tot_prefetch_time: 0(cycle), 0.000000(us)
Tot_kernel_exec_time: 2002645(cycle), 1352.224854(us)
Tot_kernel_exec_time_and_fault_time: 53186005(cycle), 35912.222656(us)
Tot_memcpy_h2d_time: 2000640(cycle), 1350.871094(us)
Tot_memcpy_d2h_time: 0(cycle), 0.000000(us)
Tot_memcpy_time: 2000640(cycle), 1350.871094(us)
Tot_devicesync_time: 136759(cycle), 92.342339(us)
Tot_writeback_time: 0(cycle), 0.000000(us)
Tot_rdma_time: 0(cycle), 0.000000(us)
Tot_memcpy_d2h_sync_wb_time: 136759(cycle), 92.342339(us)
GPGPU-Sim: *** exit detected ***
