

        *** GPGPU-Sim Simulator Version 3.2.2  [build gpgpu-sim_git-commit-32a5e88e7f0bd0281e1f3b1056e517909662bd85_modified_0] ***


GPGPU-Sim PTX: simulation mode 0 (can change with PTX_SIM_MODE_FUNC environment variable:
               1=functional simulation only, 0=detailed performance simulator)
GPGPU-Sim: Configuration options:

-network_mode                           1 # Interconnection network mode
-inter_config_file   config_fermi_islip.icnt # Interconnection network config file
-gpgpu_ptx_use_cuobjdump                    1 # Use cuobjdump to extract ptx and sass from binaries
-gpgpu_experimental_lib_support                    0 # Try to extract code from cuda libraries [Broken because of unknown cudaGetExportTable]
-gpgpu_ptx_convert_to_ptxplus                    0 # Convert SASS (native ISA) to ptxplus and run ptxplus
-gpgpu_ptx_force_max_capability                   20 # Force maximum compute capability
-gpgpu_ptx_inst_debug_to_file                    0 # Dump executed instructions' debug information to file
-gpgpu_ptx_inst_debug_file       inst_debug.txt # Executed instructions' debug output file
-gpgpu_ptx_inst_debug_thread_uid                    1 # Thread UID for executed instructions' debug output
-gpgpu_simd_model                       1 # 1 = post-dominator
-gpgpu_shader_core_pipeline              2048:32 # shader core pipeline config, i.e., {<nthread>:<warpsize>}
-gpgpu_tex_cache:l1  16:128:24,L:R:m:N:L,F:128:4,128:2 # per-shader L1 texture cache  (READ-ONLY) config  {<nsets>:<bsize>:<assoc>,<rep>:<wr>:<alloc>:<wr_alloc>,<mshr>:<N>:<merge>,<mq>:<rf>}
-gpgpu_const_cache:l1 128:64:2,L:R:f:N:L,A:2:64,4 # per-shader L1 constant memory cache  (READ-ONLY) config  {<nsets>:<bsize>:<assoc>,<rep>:<wr>:<alloc>:<wr_alloc>,<mshr>:<N>:<merge>,<mq>} 
-gpgpu_cache:il1     8:128:4,L:R:f:N:L,A:2:48,4 # shader L1 instruction cache config  {<nsets>:<bsize>:<assoc>,<rep>:<wr>:<alloc>:<wr_alloc>,<mshr>:<N>:<merge>,<mq>} 
-gpgpu_cache:dl1     64:128:6,L:L:m:N:H,A:128:8,8 # per-shader L1 data cache config  {<nsets>:<bsize>:<assoc>,<rep>:<wr>:<alloc>:<wr_alloc>,<mshr>:<N>:<merge>,<mq> | none}
-gpgpu_cache:dl1PrefL1                 none # per-shader L1 data cache config  {<nsets>:<bsize>:<assoc>,<rep>:<wr>:<alloc>:<wr_alloc>,<mshr>:<N>:<merge>,<mq> | none}
-gpgpu_cache:dl1PrefShared                 none # per-shader L1 data cache config  {<nsets>:<bsize>:<assoc>,<rep>:<wr>:<alloc>:<wr_alloc>,<mshr>:<N>:<merge>,<mq> | none}
-gmem_skip_L1D                          1 # global memory access skip L1D cache (implements -Xptxas -dlcm=cg, default=no skip)
-gpgpu_perfect_mem                      0 # enable perfect memory mode (no cache miss)
-n_regfile_gating_group                    4 # group of lanes that should be read/written together)
-gpgpu_clock_gated_reg_file                    0 # enable clock gated reg file for power calculations
-gpgpu_clock_gated_lanes                    0 # enable clock gated lanes for power calculations
-gpgpu_shader_registers                65536 # Number of registers per shader core. Limits number of concurrent CTAs. (default 8192)
-gpgpu_shader_cta                      32 # Maximum number of concurrent CTAs in shader (default 8)
-gpgpu_num_cta_barriers                   16 # Maximum number of named barriers per CTA (default 16)
-gpgpu_n_clusters                      28 # number of processing clusters
-gpgpu_n_cores_per_cluster                    1 # number of simd cores per cluster
-gpgpu_n_cluster_ejection_buffer_size                    8 # number of packets in ejection buffer
-gpgpu_n_ldst_response_buffer_size                    2 # number of response packets in ld/st unit ejection buffer
-gpgpu_shmem_size                   16384 # Size of shared memory per shader core (default 16kB)
-gpgpu_shmem_size                   98304 # Size of shared memory per shader core (default 16kB)
-gpgpu_shmem_size_PrefL1                16384 # Size of shared memory per shader core (default 16kB)
-gpgpu_shmem_size_PrefShared                16384 # Size of shared memory per shader core (default 16kB)
-gpgpu_shmem_num_banks                   32 # Number of banks in the shared memory in each shader core (default 16)
-gpgpu_shmem_limited_broadcast                    0 # Limit shared memory to do one broadcast per cycle (default on)
-gpgpu_shmem_warp_parts                    1 # Number of portions a warp is divided into for shared memory bank conflict check 
-gpgpu_warpdistro_shader                   -1 # Specify which shader core to collect the warp size distribution from
-gpgpu_warp_issue_shader                    0 # Specify which shader core to collect the warp issue distribution from
-gpgpu_local_mem_map                    1 # Mapping from local memory space address to simulated GPU physical address space (default = enabled)
-gpgpu_num_reg_banks                   32 # Number of register banks (default = 8)
-gpgpu_reg_bank_use_warp_id                    0 # Use warp ID in mapping registers to banks (default = off)
-gpgpu_operand_collector_num_units_sp                   20 # number of collector units (default = 4)
-gpgpu_operand_collector_num_units_sfu                    4 # number of collector units (default = 4)
-gpgpu_operand_collector_num_units_mem                    8 # number of collector units (default = 2)
-gpgpu_operand_collector_num_units_gen                    0 # number of collector units (default = 0)
-gpgpu_operand_collector_num_in_ports_sp                    4 # number of collector unit in ports (default = 1)
-gpgpu_operand_collector_num_in_ports_sfu                    1 # number of collector unit in ports (default = 1)
-gpgpu_operand_collector_num_in_ports_mem                    1 # number of collector unit in ports (default = 1)
-gpgpu_operand_collector_num_in_ports_gen                    0 # number of collector unit in ports (default = 0)
-gpgpu_operand_collector_num_out_ports_sp                    4 # number of collector unit in ports (default = 1)
-gpgpu_operand_collector_num_out_ports_sfu                    1 # number of collector unit in ports (default = 1)
-gpgpu_operand_collector_num_out_ports_mem                    1 # number of collector unit in ports (default = 1)
-gpgpu_operand_collector_num_out_ports_gen                    0 # number of collector unit in ports (default = 0)
-gpgpu_coalesce_arch                   13 # Coalescing arch (default = 13, anything else is off for now)
-gpgpu_num_sched_per_core                    2 # Number of warp schedulers per core
-gpgpu_max_insn_issue_per_warp                    2 # Max number of instructions that can be issued per warp in one cycle by scheduler
-gpgpu_simt_core_sim_order                    1 # Select the simulation order of cores in a cluster (0=Fix, 1=Round-Robin)
-gpgpu_pipeline_widths        4,1,1,4,1,1,6 # Pipeline widths ID_OC_SP,ID_OC_SFU,ID_OC_MEM,OC_EX_SP,OC_EX_SFU,OC_EX_MEM,EX_WB
-gpgpu_num_sp_units                     4 # Number of SP units (default=1)
-gpgpu_num_sfu_units                    1 # Number of SF units (default=1)
-gpgpu_num_mem_units                    1 # Number if ldst units (default=1) WARNING: not hooked up to anything
-gpgpu_scheduler                      gto # Scheduler configuration: < lrr | gto | two_level_active > If two_level_active:<num_active_warps>:<inner_prioritization>:<outer_prioritization>For complete list of prioritization values see shader.h enum scheduler_prioritization_typeDefault: gto
-gpgpu_concurrent_kernel_sm                    0 # Support concurrent kernels on a SM (default = disabled)
-tlb_size                            4096 # Number of tlb entries per SM.
-gpgpu_dram_scheduler                    1 # 0 = fifo, 1 = FR-FCFS (defaul)
-gpgpu_dram_partition_queues              8:8:8:8 # i2$:$2d:d2$:$2i
-l2_ideal                               0 # Use a ideal L2 cache that always hit
-gpgpu_cache:dl2     64:128:16,L:B:m:W:L,A:1024:1024,4:0,32 # unified banked L2 data cache config  {<nsets>:<bsize>:<assoc>,<rep>:<wr>:<alloc>:<wr_alloc>,<mshr>:<N>:<merge>,<mq>}
-gpgpu_cache:dl2_texture_only                    0 # L2 cache used for texture only
-gpgpu_n_mem                           11 # number of memory modules (e.g. memory controllers) in gpu
-gpgpu_n_sub_partition_per_mchannel                    2 # number of memory subpartition in each memory module
-gpgpu_n_mem_per_ctrlr                    1 # number of memory chips per memory controller
-gpgpu_memlatency_stat                   14 # track and display latency statistics 0x2 enables MC, 0x4 enables queue logs
-gpgpu_frfcfs_dram_sched_queue_size                   64 # 0 = unlimited (default); # entries per chip
-gpgpu_dram_return_queue_size                  116 # 0 = unlimited (default); # entries per chip
-gpgpu_dram_buswidth                    4 # default = 4 bytes (8 bytes per cycle at DDR)
-gpgpu_dram_burst_length                    8 # Burst length of each DRAM request (default = 4 data bus cycle)
-dram_data_command_freq_ratio                    4 # Frequency ratio between DRAM data bus and command bus (default = 2 times, i.e. DDR)
-gpgpu_dram_timing_opt nbk=16:CCD=2:RRD=6:RCD=12:RAS=28:RP=12:RC=40: CL=12:WL=4:CDLR=5:WR=12:nbkgrp=1:CCDL=0:RTPL=0 # DRAM timing parameters = {nbk:tCCD:tRRD:tRCD:tRAS:tRP:tRC:CL:WL:tCDLR:tWR:nbkgrp:tCCDL:tRTPL}
-rop_latency                          120 # ROP queue latency (default 85)
-dram_latency                         100 # DRAM latency (default 30)
-gpgpu_mem_addr_mapping dramid@8;00000000.00000000.00000000.00000000.0000RRRR.RRRRRRRR.RBBBCCCC.BCCSSSSS # mapping memory address to dram model {dramid@<start bit>;<memory address map>}
-gpgpu_mem_addr_test                    0 # run sweep test to check address mapping for aliased address
-gpgpu_mem_address_mask                    1 # 0 = old addressing mask, 1 = new addressing mask, 2 = new add. mask + flipped bank sel and chip sel bits
-gpuwattch_xml_file  gpuwattch_geforcegtx1080ti.xml # GPUWattch XML file
-power_simulation_enabled                    1 # Turn on power simulator (1=On, 0=Off)
-power_per_cycle_dump                    0 # Dump detailed power output each cycle
-power_trace_enabled                    0 # produce a file for the power trace (1=On, 0=Off)
-power_trace_zlevel                     6 # Compression level of the power trace output log (0=no comp, 9=highest)
-steady_power_levels_enabled                    0 # produce a file for the steady power levels (1=On, 0=Off)
-steady_state_definition                  8:4 # allowed deviation:number of samples
-gpgpu_max_cycle                        0 # terminates gpu simulation early (0 = no limit)
-gpgpu_max_insn                         0 # terminates gpu simulation early (0 = no limit)
-gpgpu_max_cta                          0 # terminates gpu simulation early (0 = no limit)
-gpgpu_runtime_stat                   500 # display runtime statistics such as dram utilization {<freq>:<flag>}
-liveness_message_freq                    1 # Minimum number of seconds between simulation liveness messages (0 = always print)
-gpgpu_flush_l1_cache                    0 # Flush L1 cache at the end of each kernel call
-gpgpu_flush_l2_cache                    0 # Flush L2 cache at the end of each kernel call
-gpgpu_deadlock_detect                    0 # Stop the simulation at deadlock (1=on (default), 0=off)
-gpgpu_ptx_instruction_classification                    0 # if enabled will classify ptx instruction types per kernel (Max 255 kernels now)
-gpgpu_ptx_sim_mode                     0 # Select between Performance (default) or Functional simulation (1)
-gpgpu_clock_domains 1481.0:2962.0:1481.0:2750.0 # Clock Domain Frequencies in MhZ {<Core Clock>:<ICNT Clock>:<L2 Clock>:<DRAM Clock>}
-gpgpu_max_concurrent_kernel                    8 # maximum kernels that can run concurrently on GPU
-gpgpu_cflog_interval                    0 # Interval between each snapshot in control flow logger
-visualizer_enabled                     0 # Turn on visualizer output (1=On, 0=Off)
-visualizer_outputfile                 NULL # Specifies the output log file for visualizer
-visualizer_zlevel                      6 # Compression level of the visualizer output log (0=no comp, 9=highest)
-trace_enabled                          0 # Turn on traces
-trace_components                    none # comma seperated list of traces to enable. Complete list found in trace_streams.tup. Default none
-trace_sampling_core                    0 # The core which is printed using CORE_DPRINTF. Default 0
-trace_sampling_memory_partition                   -1 # The memory partition which is printed using MEMPART_DPRINTF. Default -1 (i.e. all)
-gddr_size                            5MB # Size of GDDR in MB/GB.(GLOBAL_HEAP_START, GLOBAL_HEAP_START + gddr_size) would be used for unmanged memory, (GLOBAL_HEAP_START + gddr_size, GLOBAL_HEAP_START + gddr_size*2) would be used for managed memory. 
-page_table_walk_latency                  100 # Average page table walk latency (in core cycle).
-eviction_policy                        0 # Select page eviction policy
-invalidate_clean                       0 # Should directly invalidate clean pages
-reserve_accessed_page_percent                    0 # Percentage of accessed pages reserved from eviction in hope that they will be accessed in next iteration.
-percentage_of_free_page_buffer                    0 # Percentage of free page buffer to trigger the page eviction.
-page_size                            4KB # GDDR page size, only 4KB/2MB avaliable.
-pcie_bandwidth                  16.0GB/s # PCI-e bandwidth per direction, in GB/s.
-enable_dma                             0 # Enable direct access to CPU memory
-multiply_dma_penalty                    2 # Oversubscription Multiplicative Penalty Factor for Adaptive DMA
-migrate_threshold                      8 # Access counter threshold for migrating the page from cpu to gpu
-sim_prof_enable                        1 # Enable gpgpu-sim profiler
-hardware_prefetch                      1 # Select gpgpu-sim hardware prefetcher
-hwprefetch_oversub                     1 # Select gpgpu-sim hardware prefetcher under over-subscription
-page_fault_latency                 66645 # Average fault latency (in core cycle).
-enable_accurate_simulation                    0 # Enable page fault functional simulation.
-enable_smart_runtime                    0 # Enable access pattern detection, policy engine, and adaptive memory management.
-enable_ptx_file_line_stats                    1 # Turn on PTX source line statistic profiling. (1 = On)
-ptx_line_stats_filename gpgpu_inst_stats.txt # Output file for PTX source line statistics.
-gpgpu_kernel_launch_latency               222150 # Kernel launch latency in cycles. Default: 0
-gpgpu_cdp_enabled                      0 # Turn on CDP
-save_embedded_ptx                      0 # saves ptx files embedded in binary as <n>.ptx
-keep                                   0 # keep intermediate files created by GPGPU-Sim when interfacing with external programs
-gpgpu_ptx_save_converted_ptxplus                    0 # Saved converted ptxplus to a file
-ptx_opcode_latency_int         4,13,4,5,145 # Opcode latencies for integers <ADD,MAX,MUL,MAD,DIV>Default 1,1,19,25,145
-ptx_opcode_latency_fp          4,13,4,5,39 # Opcode latencies for single precision floating points <ADD,MAX,MUL,MAD,DIV>Default 1,1,1,1,30
-ptx_opcode_latency_dp         8,19,8,8,330 # Opcode latencies for double precision floating points <ADD,MAX,MUL,MAD,DIV>Default 8,8,8,8,335
-ptx_opcode_initiation_int            1,2,2,2,8 # Opcode initiation intervals for integers <ADD,MAX,MUL,MAD,DIV>Default 1,1,4,4,32
-ptx_opcode_initiation_fp            1,2,1,1,4 # Opcode initiation intervals for single precision floating points <ADD,MAX,MUL,MAD,DIV>Default 1,1,1,1,5
-ptx_opcode_initiation_dp          1,2,1,1,130 # Opcode initiation intervals for double precision floating points <ADD,MAX,MUL,MAD,DIV>Default 8,8,8,8,130
-cdp_latency         7200,8000,100,12000,1600 # CDP API latency <cudaStreamCreateWithFlags, cudaGetParameterBufferV2_init_perWarp, cudaGetParameterBufferV2_perKernel, cudaLaunchDeviceV2_init_perWarp, cudaLaunchDevicV2_perKernel>Default 7200,8000,100,12000,1600
DRAM Timing Options:
nbk                                    16 # number of banks
CCD                                     2 # column to column delay
RRD                                     6 # minimal delay between activation of rows in different banks
RCD                                    12 # row to column delay
RAS                                    28 # time needed to activate row
RP                                     12 # time needed to precharge (deactivate) row
RC                                     40 # row cycle time
CDLR                                    5 # switching from write to read (changes tWTR)
WR                                     12 # last data-in to row precharge
CL                                     12 # CAS latency
WL                                      4 # Write latency
nbkgrp                                  1 # number of bank groups
CCDL                                    0 # column to column delay between accesses to different bank groups
RTPL                                    0 # read to precharge delay between accesses to different bank groups
Total number of memory sub partition = 22
addr_dec_mask[CHIP]  = 0000000000000000 	high:64 low:0
addr_dec_mask[BK]    = 0000000000007080 	high:15 low:7
addr_dec_mask[ROW]   = 000000000fff8000 	high:28 low:15
addr_dec_mask[COL]   = 0000000000000f7f 	high:12 low:0
addr_dec_mask[BURST] = 000000000000001f 	high:5 low:0
sub_partition_id_mask = 0000000000000080
GPGPU-Sim uArch: clock freqs: 1481000000.000000:2962000000.000000:1481000000.000000:2750000000.000000
GPGPU-Sim uArch: clock periods: 0.00000000067521944632:0.00000000033760972316:0.00000000067521944632:0.00000000036363636364
*** Initializing Memory Statistics ***
GPGPU-Sim uArch: interconnect node map (shaderID+MemID to icntID)
GPGPU-Sim uArch: Memory nodes ID start from index: 28
GPGPU-Sim uArch:    0   1   2   3   4   5   6
GPGPU-Sim uArch:    7   8   9  10  11  12  13
GPGPU-Sim uArch:   14  15  16  17  18  19  20
GPGPU-Sim uArch:   21  22  23  24  25  26  27
GPGPU-Sim uArch:   28  29  30  31  32  33  34
GPGPU-Sim uArch:   35  36  37  38  39  40  41
GPGPU-Sim uArch:   42  43  44  45  46  47  48
GPGPU-Sim uArch:   49
GPGPU-Sim uArch: interconnect node reverse map (icntID to shaderID+MemID)
GPGPU-Sim uArch: Memory nodes start from ID: 28
GPGPU-Sim uArch:    0   1   2   3   4   5   6
GPGPU-Sim uArch:    7   8   9  10  11  12  13
GPGPU-Sim uArch:   14  15  16  17  18  19  20
GPGPU-Sim uArch:   21  22  23  24  25  26  27
GPGPU-Sim uArch:   28  29  30  31  32  33  34
GPGPU-Sim uArch:   35  36  37  38  39  40  41
GPGPU-Sim uArch:   42  43  44  45  46  47  48
GPGPU-Sim uArch:   49
01c18c6fe287eb99124b9482a264b33e  /root/gpgpu-sim_UVMSmart/benchmarks/Managed/ATAX/atax
GPGPU-Sim uArch: performance model initialization complete.
GPGPU-Sim PTX: __cudaRegisterFatBinary, fat_cubin_handle = 1, filename=default
self exe links to: /root/gpgpu-sim_UVMSmart/benchmarks/Managed/ATAX/atax
Running md5sum using "md5sum /root/gpgpu-sim_UVMSmart/benchmarks/Managed/ATAX/atax "
Parsing file _cuobjdump_complete_output_VOP7tB
######### cuobjdump parser ########
## Adding new section ELF
Adding arch: sm_20
Adding identifier: default
## Adding new section ELF
Adding arch: sm_20
Adding identifier: default
## Adding new section PTX
Adding ptx filename: _cuobjdump_1.ptx
Adding arch: sm_20
Adding identifier: default
Done parsing!!!
GPGPU-Sim PTX: __cudaRegisterFunction _Z12atax_kernel2PfS_S_ : hostFun 0x0x4010a2, fat_cubin_handle = 1
GPGPU-Sim PTX: instruction assembly for function '_Z12atax_kernel1PfS_S_'...   done.
GPGPU-Sim PTX: finding reconvergence points for '_Z12atax_kernel1PfS_S_'...
GPGPU-Sim PTX: Finding dominators for '_Z12atax_kernel1PfS_S_'...
GPGPU-Sim PTX: Finding immediate dominators for '_Z12atax_kernel1PfS_S_'...
GPGPU-Sim PTX: Finding postdominators for '_Z12atax_kernel1PfS_S_'...
GPGPU-Sim PTX: Finding immediate postdominators for '_Z12atax_kernel1PfS_S_'...
GPGPU-Sim PTX: pre-decoding instructions for '_Z12atax_kernel1PfS_S_'...
GPGPU-Sim PTX: reconvergence points for _Z12atax_kernel1PfS_S_...
GPGPU-Sim PTX:  1 (potential) branch divergence @  PC=0x040 (_1.ptx:34) @%p1 bra BB0_3;
GPGPU-Sim PTX:    immediate post dominator      @  PC=0x270 (_1.ptx:109) ret;
GPGPU-Sim PTX:  2 (potential) branch divergence @  PC=0x268 (_1.ptx:106) @%p2 bra BB0_2;
GPGPU-Sim PTX:    immediate post dominator      @  PC=0x270 (_1.ptx:109) ret;
GPGPU-Sim PTX: ... end of reconvergence points for _Z12atax_kernel1PfS_S_
GPGPU-Sim PTX: ... done pre-decoding instructions for '_Z12atax_kernel1PfS_S_'.
GPGPU-Sim PTX: instruction assembly for function '_Z12atax_kernel2PfS_S_'...   done.
GPGPU-Sim PTX: finding reconvergence points for '_Z12atax_kernel2PfS_S_'...
GPGPU-Sim PTX: Finding dominators for '_Z12atax_kernel2PfS_S_'...
GPGPU-Sim PTX: Finding immediate dominators for '_Z12atax_kernel2PfS_S_'...
GPGPU-Sim PTX: Finding postdominators for '_Z12atax_kernel2PfS_S_'...
GPGPU-Sim PTX: Finding immediate postdominators for '_Z12atax_kernel2PfS_S_'...
GPGPU-Sim PTX: pre-decoding instructions for '_Z12atax_kernel2PfS_S_'...
GPGPU-Sim PTX: reconvergence points for _Z12atax_kernel2PfS_S_...
GPGPU-Sim PTX:  1 (potential) branch divergence @  PC=0x2b8 (_1.ptx:133) @%p1 bra BB1_3;
GPGPU-Sim PTX:    immediate post dominator      @  PC=0x4b8 (_1.ptx:202) ret;
GPGPU-Sim PTX:  2 (potential) branch divergence @  PC=0x4b0 (_1.ptx:199) @%p2 bra BB1_2;
GPGPU-Sim PTX:    immediate post dominator      @  PC=0x4b8 (_1.ptx:202) ret;
GPGPU-Sim PTX: ... end of reconvergence points for _Z12atax_kernel2PfS_S_
GPGPU-Sim PTX: ... done pre-decoding instructions for '_Z12atax_kernel2PfS_S_'.
GPGPU-Sim PTX: finished parsing EMBEDDED .ptx file _1.ptx
Adding _cuobjdump_1.ptx with cubin handle 1
GPGPU-Sim PTX: extracting embedded .ptx to temporary file "_ptx_geqNXA"
Running: cat _ptx_geqNXA | sed 's/.version 1.5/.version 1.4/' | sed 's/, texmode_independent//' | sed 's/\(\.extern \.const\[1\] .b8 \w\+\)\[\]/\1\[1\]/' | sed 's/const\[.\]/const\[0\]/g' > _ptx2_fDLtrA
GPGPU-Sim PTX: generating ptxinfo using "$CUDA_INSTALL_PATH/bin/ptxas --gpu-name=sm_20 -v _ptx2_fDLtrA --output-file  /dev/null 2> _ptx_geqNXAinfo"
GPGPU-Sim PTX: Kernel '_Z12atax_kernel2PfS_S_' : regs=14, lmem=0, smem=0, cmem=56
GPGPU-Sim PTX: Kernel '_Z12atax_kernel1PfS_S_' : regs=19, lmem=0, smem=0, cmem=56
GPGPU-Sim PTX: removing ptxinfo using "rm -f _ptx_geqNXA _ptx2_fDLtrA _ptx_geqNXAinfo"
GPGPU-Sim PTX: loading globals with explicit initializers... 
GPGPU-Sim PTX: finished loading globals (0 bytes total).
GPGPU-Sim PTX: loading constants with explicit initializers...  done.
GPGPU-Sim PTX: __cudaRegisterFunction _Z12atax_kernel1PfS_S_ : hostFun 0x0x400fe3, fat_cubin_handle = 1

GPGPU-Sim PTX: cudaLaunch for 0x0x400fe3 (mode=performance simulation) on stream 0
GPGPU-Sim PTX: pushing kernel '_Z12atax_kernel1PfS_S_' to stream 0, gridDim= (5,1,1) blockDim = (256,1,1) 
GPGPU-Sim uArch: Shader 1 bind to kernel 1 '_Z12atax_kernel1PfS_S_'
GPGPU-Sim uArch: CTA/core = 8, limited by: threads
GPGPU-Sim uArch: Shader 2 bind to kernel 1 '_Z12atax_kernel1PfS_S_'
GPGPU-Sim uArch: Shader 3 bind to kernel 1 '_Z12atax_kernel1PfS_S_'
GPGPU-Sim uArch: Shader 4 bind to kernel 1 '_Z12atax_kernel1PfS_S_'
GPGPU-Sim uArch: Shader 5 bind to kernel 1 '_Z12atax_kernel1PfS_S_'
Destroy streams for kernel 1: size 0
kernel_name = _Z12atax_kernel1PfS_S_ 
kernel_launch_uid = 1 
gpu_sim_cycle = 3150347
gpu_sim_insn = 6627200
gpu_ipc =       2.1036
gpu_tot_sim_cycle = 3372497
gpu_tot_sim_insn = 6627200
gpu_tot_ipc =       1.9651
gpu_tot_issued_cta = 5
max_total_param_size = 0
gpu_stall_dramfull = 63684
gpu_stall_icnt2sh    = 5589074
partiton_reqs_in_parallel = 69243950
partiton_reqs_in_parallel_total    = 0
partiton_level_parallism =      21.9798
partiton_level_parallism_total  =      20.5320
partiton_reqs_in_parallel_util = 69243950
partiton_reqs_in_parallel_util_total    = 0
gpu_sim_cycle_parition_util = 3150347
gpu_tot_sim_cycle_parition_util    = 0
partiton_level_parallism_util =      21.9798
partiton_level_parallism_util_total  =      21.9798
partiton_replys_in_parallel = 1531268
partiton_replys_in_parallel_total    = 0
L2_BW  =      46.0710 GB/Sec
L2_BW_total  =      43.0363 GB/Sec
gpu_total_sim_rate=8955

========= Core cache stats =========
L1I_cache:
	L1I_total_cache_accesses = 106868
	L1I_total_cache_misses = 141
	L1I_total_cache_miss_rate = 0.0013
	L1I_total_cache_pending_hits = 0
	L1I_total_cache_reservation_fails = 0
L1D_cache:
	L1D_cache_core[0]: Access = 0, Miss = 0, Miss_rate = -nan, Pending_hits = 0, Reservation_fails = 0
	L1D_cache_core[1]: Access = 0, Miss = 0, Miss_rate = -nan, Pending_hits = 0, Reservation_fails = 0
	L1D_cache_core[2]: Access = 0, Miss = 0, Miss_rate = -nan, Pending_hits = 0, Reservation_fails = 0
	L1D_cache_core[3]: Access = 0, Miss = 0, Miss_rate = -nan, Pending_hits = 0, Reservation_fails = 0
	L1D_cache_core[4]: Access = 0, Miss = 0, Miss_rate = -nan, Pending_hits = 0, Reservation_fails = 0
	L1D_cache_core[5]: Access = 0, Miss = 0, Miss_rate = -nan, Pending_hits = 0, Reservation_fails = 0
	L1D_cache_core[6]: Access = 0, Miss = 0, Miss_rate = -nan, Pending_hits = 0, Reservation_fails = 0
	L1D_cache_core[7]: Access = 0, Miss = 0, Miss_rate = -nan, Pending_hits = 0, Reservation_fails = 0
	L1D_cache_core[8]: Access = 0, Miss = 0, Miss_rate = -nan, Pending_hits = 0, Reservation_fails = 0
	L1D_cache_core[9]: Access = 0, Miss = 0, Miss_rate = -nan, Pending_hits = 0, Reservation_fails = 0
	L1D_cache_core[10]: Access = 0, Miss = 0, Miss_rate = -nan, Pending_hits = 0, Reservation_fails = 0
	L1D_cache_core[11]: Access = 0, Miss = 0, Miss_rate = -nan, Pending_hits = 0, Reservation_fails = 0
	L1D_cache_core[12]: Access = 0, Miss = 0, Miss_rate = -nan, Pending_hits = 0, Reservation_fails = 0
	L1D_cache_core[13]: Access = 0, Miss = 0, Miss_rate = -nan, Pending_hits = 0, Reservation_fails = 0
	L1D_cache_core[14]: Access = 0, Miss = 0, Miss_rate = -nan, Pending_hits = 0, Reservation_fails = 0
	L1D_cache_core[15]: Access = 0, Miss = 0, Miss_rate = -nan, Pending_hits = 0, Reservation_fails = 0
	L1D_cache_core[16]: Access = 0, Miss = 0, Miss_rate = -nan, Pending_hits = 0, Reservation_fails = 0
	L1D_cache_core[17]: Access = 0, Miss = 0, Miss_rate = -nan, Pending_hits = 0, Reservation_fails = 0
	L1D_cache_core[18]: Access = 0, Miss = 0, Miss_rate = -nan, Pending_hits = 0, Reservation_fails = 0
	L1D_cache_core[19]: Access = 0, Miss = 0, Miss_rate = -nan, Pending_hits = 0, Reservation_fails = 0
	L1D_cache_core[20]: Access = 0, Miss = 0, Miss_rate = -nan, Pending_hits = 0, Reservation_fails = 0
	L1D_cache_core[21]: Access = 0, Miss = 0, Miss_rate = -nan, Pending_hits = 0, Reservation_fails = 0
	L1D_cache_core[22]: Access = 0, Miss = 0, Miss_rate = -nan, Pending_hits = 0, Reservation_fails = 0
	L1D_cache_core[23]: Access = 0, Miss = 0, Miss_rate = -nan, Pending_hits = 0, Reservation_fails = 0
	L1D_cache_core[24]: Access = 0, Miss = 0, Miss_rate = -nan, Pending_hits = 0, Reservation_fails = 0
	L1D_cache_core[25]: Access = 0, Miss = 0, Miss_rate = -nan, Pending_hits = 0, Reservation_fails = 0
	L1D_cache_core[26]: Access = 0, Miss = 0, Miss_rate = -nan, Pending_hits = 0, Reservation_fails = 0
	L1D_cache_core[27]: Access = 0, Miss = 0, Miss_rate = -nan, Pending_hits = 0, Reservation_fails = 0
	L1D_total_cache_accesses = 0
	L1D_total_cache_misses = 0
	L1D_total_cache_pending_hits = 0
	L1D_total_cache_reservation_fails = 0
	L1D_cache_data_port_util = 0.000
	L1D_cache_fill_port_util = 0.000
L1C_cache:
	L1C_total_cache_accesses = 120
	L1C_total_cache_misses = 120
	L1C_total_cache_miss_rate = 1.0000
	L1C_total_cache_pending_hits = 0
	L1C_total_cache_reservation_fails = 0
L1T_cache:
	L1T_total_cache_accesses = 0
	L1T_total_cache_misses = 0
	L1T_total_cache_pending_hits = 0
	L1T_total_cache_reservation_fails = 0

Total_core_cache_stats:
	Total_core_cache_stats_breakdown[GLOBAL_ACC_R][HIT] = 0
	Total_core_cache_stats_breakdown[GLOBAL_ACC_R][HIT_RESERVED] = 0
	Total_core_cache_stats_breakdown[GLOBAL_ACC_R][MISS] = 0
	Total_core_cache_stats_breakdown[GLOBAL_ACC_R][RESERVATION_FAIL] = 0
	Total_core_cache_stats_breakdown[LOCAL_ACC_R][HIT] = 0
	Total_core_cache_stats_breakdown[LOCAL_ACC_R][HIT_RESERVED] = 0
	Total_core_cache_stats_breakdown[LOCAL_ACC_R][MISS] = 0
	Total_core_cache_stats_breakdown[LOCAL_ACC_R][RESERVATION_FAIL] = 0
	Total_core_cache_stats_breakdown[CONST_ACC_R][HIT] = 0
	Total_core_cache_stats_breakdown[CONST_ACC_R][HIT_RESERVED] = 0
	Total_core_cache_stats_breakdown[CONST_ACC_R][MISS] = 120
	Total_core_cache_stats_breakdown[CONST_ACC_R][RESERVATION_FAIL] = 0
	Total_core_cache_stats_breakdown[TEXTURE_ACC_R][HIT] = 0
	Total_core_cache_stats_breakdown[TEXTURE_ACC_R][HIT_RESERVED] = 0
	Total_core_cache_stats_breakdown[TEXTURE_ACC_R][MISS] = 0
	Total_core_cache_stats_breakdown[TEXTURE_ACC_R][RESERVATION_FAIL] = 0
	Total_core_cache_stats_breakdown[GLOBAL_ACC_W][HIT] = 0
	Total_core_cache_stats_breakdown[GLOBAL_ACC_W][HIT_RESERVED] = 0
	Total_core_cache_stats_breakdown[GLOBAL_ACC_W][MISS] = 0
	Total_core_cache_stats_breakdown[GLOBAL_ACC_W][RESERVATION_FAIL] = 0
	Total_core_cache_stats_breakdown[LOCAL_ACC_W][HIT] = 0
	Total_core_cache_stats_breakdown[LOCAL_ACC_W][HIT_RESERVED] = 0
	Total_core_cache_stats_breakdown[LOCAL_ACC_W][MISS] = 0
	Total_core_cache_stats_breakdown[LOCAL_ACC_W][RESERVATION_FAIL] = 0
	Total_core_cache_stats_breakdown[L1_WRBK_ACC][HIT] = 0
	Total_core_cache_stats_breakdown[L1_WRBK_ACC][HIT_RESERVED] = 0
	Total_core_cache_stats_breakdown[L1_WRBK_ACC][MISS] = 0
	Total_core_cache_stats_breakdown[L1_WRBK_ACC][RESERVATION_FAIL] = 0
	Total_core_cache_stats_breakdown[L2_WRBK_ACC][HIT] = 0
	Total_core_cache_stats_breakdown[L2_WRBK_ACC][HIT_RESERVED] = 0
	Total_core_cache_stats_breakdown[L2_WRBK_ACC][MISS] = 0
	Total_core_cache_stats_breakdown[L2_WRBK_ACC][RESERVATION_FAIL] = 0
	Total_core_cache_stats_breakdown[INST_ACC_R][HIT] = 106727
	Total_core_cache_stats_breakdown[INST_ACC_R][HIT_RESERVED] = 0
	Total_core_cache_stats_breakdown[INST_ACC_R][MISS] = 141
	Total_core_cache_stats_breakdown[INST_ACC_R][RESERVATION_FAIL] = 0
	Total_core_cache_stats_breakdown[L1_WR_ALLOC_R][HIT] = 0
	Total_core_cache_stats_breakdown[L1_WR_ALLOC_R][HIT_RESERVED] = 0
	Total_core_cache_stats_breakdown[L1_WR_ALLOC_R][MISS] = 0
	Total_core_cache_stats_breakdown[L1_WR_ALLOC_R][RESERVATION_FAIL] = 0
	Total_core_cache_stats_breakdown[L2_WR_ALLOC_R][HIT] = 0
	Total_core_cache_stats_breakdown[L2_WR_ALLOC_R][HIT_RESERVED] = 0
	Total_core_cache_stats_breakdown[L2_WR_ALLOC_R][MISS] = 0
	Total_core_cache_stats_breakdown[L2_WR_ALLOC_R][RESERVATION_FAIL] = 0
	Total_core_cache_stats_breakdown[CONST_ACC_R][TOTAL_ACCESS] = 120
	Total_core_cache_stats_breakdown[INST_ACC_R][TOTAL_ACCESS] = 106868
Shader 0 warp_id issue ditsribution:
warp_id:

distro:

gpgpu_n_tot_thrd_icount = 6717824
gpgpu_n_tot_w_icount = 209932
gpgpu_n_stall_shd_mem = 1398864
gpgpu_n_mem_read_local = 0
gpgpu_n_mem_write_local = 0
gpgpu_n_mem_read_global = 1485638
gpgpu_n_mem_write_global = 45600
gpgpu_n_mem_texture = 0
gpgpu_n_mem_const = 5
gpgpu_n_load_insn  = 2881200
gpgpu_n_store_insn = 1440000
gpgpu_n_shmem_insn = 0
gpgpu_n_tex_insn = 0
gpgpu_n_const_mem_insn = 0
gpgpu_n_param_mem_insn = 3840
gpgpu_n_shmem_bkconflict = 0
gpgpu_n_cache_bkconflict = 0
gpgpu_n_intrawarp_mshr_merge = 0
gpgpu_n_cmem_portconflict = 0
gpgpu_stall_shd_mem[c_mem][bk_conf] = 0
gpgpu_stall_shd_mem[c_mem][mshr_rc] = 0
gpgpu_stall_shd_mem[c_mem][icnt_rc] = 0
gpgpu_stall_shd_mem[c_mem][data_port_stall] = 0
gpgpu_stall_shd_mem[t_mem][mshr_rc] = 0
gpgpu_stall_shd_mem[t_mem][icnt_rc] = 0
gpgpu_stall_shd_mem[t_mem][data_port_stall] = 0
gpgpu_stall_shd_mem[s_mem][bk_conf] = 0
gpgpu_stall_shd_mem[gl_mem][bk_conf] = 0
gpgpu_stall_shd_mem[gl_mem][coal_stall] = 1398823
gpgpu_stall_shd_mem[gl_mem][data_port_stall] = 0
gpgpu_stall_shd_mem[g_mem_ld][mshr_rc] = 0
gpgpu_stall_shd_mem[g_mem_ld][icnt_rc] = 41
gpgpu_stall_shd_mem[g_mem_ld][wb_icnt_rc] = 0
gpgpu_stall_shd_mem[g_mem_ld][wb_rsrv_fail] = 0
gpgpu_stall_shd_mem[g_mem_st][mshr_rc] = 0
gpgpu_stall_shd_mem[g_mem_st][icnt_rc] = 0
gpgpu_stall_shd_mem[g_mem_st][wb_icnt_rc] = 0
gpgpu_stall_shd_mem[g_mem_st][wb_rsrv_fail] = 0
gpgpu_stall_shd_mem[l_mem_ld][mshr_rc] = 0
gpgpu_stall_shd_mem[l_mem_ld][icnt_rc] = 0
gpgpu_stall_shd_mem[l_mem_ld][wb_icnt_rc] = 0
gpgpu_stall_shd_mem[l_mem_ld][wb_rsrv_fail] = 0
gpgpu_stall_shd_mem[l_mem_st][mshr_rc] = 0
gpgpu_stall_shd_mem[l_mem_st][icnt_rc] = 0
gpgpu_stall_shd_mem[l_mem_ld][wb_icnt_rc] = 0
gpgpu_stall_shd_mem[l_mem_ld][wb_rsrv_fail] = 0
gpu_reg_bank_conflict_stalls = 0
Warp Occupancy Distribution:
Stall:7311	W0_Idle:1238344	W0_Scoreboard:28548222	W1:0	W2:0	W3:0	W4:0	W5:0	W6:0	W7:0	W8:0	W9:0	W10:0	W11:0	W12:0	W13:0	W14:0	W15:0	W16:5514	W17:0	W18:0	W19:0	W20:0	W21:0	W22:0	W23:0	W24:0	W25:0	W26:0	W27:0	W28:0	W29:0	W30:0	W31:0	W32:204418
traffic_breakdown_coretomem[CONST_ACC_R] = 40 {8:5,}
traffic_breakdown_coretomem[GLOBAL_ACC_R] = 11885104 {8:1485638,}
traffic_breakdown_coretomem[GLOBAL_ACC_W] = 6124800 {72:1200,136:44400,}
traffic_breakdown_coretomem[INST_ACC_R] = 200 {8:25,}
traffic_breakdown_memtocore[CONST_ACC_R] = 360 {72:5,}
traffic_breakdown_memtocore[GLOBAL_ACC_R] = 59429104 {40:1485600,72:1,136:37,}
traffic_breakdown_memtocore[GLOBAL_ACC_W] = 364800 {8:45600,}
traffic_breakdown_memtocore[INST_ACC_R] = 3400 {136:25,}
maxmrqlatency = 19 
maxdqlatency = 0 
maxmflatency = 795219 
averagemflatency = 1125 
max_icnt2mem_latency = 794957 
max_icnt2sh_latency = 3372496 
mrq_lat_table:45368 	15 	34 	108 	21 	0 	0 	0 	0 	0 	0 	0 	0 	0 	0 	0 	0 	0 	0 	0 	0 	0 	0 	0 	0 	0 	0 	0 	0 	0 	0 	0 	
dq_lat_table:0 	0 	0 	0 	0 	0 	0 	0 	0 	0 	0 	0 	0 	0 	0 	0 	0 	0 	0 	0 	0 	0 	0 	0 	0 	0 	0 	0 	0 	0 	0 	0 	
mf_lat_table:0 	0 	0 	0 	0 	0 	0 	1266517 	259759 	794 	0 	36 	0 	61 	86 	150 	369 	804 	1889 	778 	0 	0 	0 	0 	0 	0 	0 	0 	0 	0 	0 	0 	
icnt2mem_lat_table:0 	0 	1027297 	444783 	52389 	850 	1221 	543 	12 	0 	0 	36 	0 	61 	86 	150 	369 	804 	1889 	778 	0 	0 	0 	0 	
icnt2sh_lat_table:0 	0 	163880 	163513 	293865 	347264 	421035 	96041 	45 	0 	0 	0 	0 	0 	0 	0 	0 	0 	0 	0 	19487 	26113 	0 	0 	
mf_lat_pw_table:0 	0 	0 	0 	0 	0 	0 	2467 	58 	28 	20 	13 	9 	12 	8 	13 	21 	36 	75 	15 	0 	0 	0 	0 	0 	0 	0 	0 	0 	0 	0 	0 	
maximum concurrent accesses to same row:
dram[0]:         2         2         2         2         2         1         1         2         3         3         3         4         2         2         3         2 
dram[1]:         1         2         2         2         1         1         2         2         2         3         4         4         3         3         2         3 
dram[2]:         2         3         2         3         2         2         2         2         3         3         3         2         2         2         3         2 
dram[3]:         2         2         2         2         2         2         2         2         2         3         2         3         2         2         2         2 
dram[4]:         2         2         2         2         2         2         2         2         3         2         3         2         2         2         2         2 
dram[5]:         3         3         2         2         2         2         2         2         2         3         3         3         2         2         2         2 
dram[6]:         2         2         2         2         2         2         2         2         3         3         3         3         2         2         2         2 
dram[7]:         3         2         2         2         1         2         2         2         3         2         3         3         2         2         2         2 
dram[8]:         2         2         2         2         2         2         2         2         4         4         3         3         2         3         2         1 
dram[9]:         2         2         2         2         1         2         2         2         4         4         3         3         3         2         2         2 
dram[10]:         2         2         2         2         1         2         2         2         4         4         3         3         2         3         2         2 
maximum service time to same row:
dram[0]:    342474    331151    397646    331764    379617    377781    350106    372985    378050    350806    385519    380662    379536    368636    332841    379536 
dram[1]:    375533    370252    333319    382104    367748    333408    377782    367804    378306    371777    355182    397061    375819    332900    368923    332896 
dram[2]:    332791    330967    375227    332789    369319    372983    328775    369318    375947    350112    387613    382761    383787    368636    330968    383787 
dram[3]:    382664    368925    330788    395991    367762    331351    372984    367753    381729    381337    350106    330361    381125    328775    368636    376282 
dram[4]:    379604    330968    382084    397684    371432    372784    333107    350825    367241    370825    384445    370176    361991    370564    330966    333860 
dram[5]:    397494    370852    384686    397494    377782    329938    372984    377783    350806    378948    370825    328568    380457    350108    370727    380457 
dram[6]:    379462    337233    382090    375226    368346    379617    328044    350106    371777    376432    385961    369987    332890    383788    337889    330968 
dram[7]:    331151    380442    341567    330788    372938    367748    382129    372932    350107    382129    398870    350105    368674    376282    383787    368636 
dram[8]:    368924    332791    393770    382084    386335    371431    367789    333109    463247    375364    330361    375473    366550    379323    361912    330969 
dram[9]:    331068    374695    330568    340065    372782    372284    371458    372984    350231    371430    370176    350106    370564    380457    376869    370564 
dram[10]:    368924    379473    388022    382084    331764    368346    381499    328045    377834    382221    372821    402121    338704    332842    380458    342462 
average row accesses per activate:
dram[0]:  1.011673  1.007812  1.007782  1.007722  1.036000  1.027888  1.040323  1.044534  1.082988  1.082645  1.028340  1.040650  1.019608  1.027888  1.015686  1.007782 
dram[1]:  1.000000  1.003876  1.007752  1.011719  1.031873  1.027888  1.048980  1.052845  1.065574  1.065844  1.044534  1.040486  1.032000  1.035857  1.015686  1.019763 
dram[2]:  1.007782  1.011719  1.007752  1.011673  1.032000  1.036145  1.044534  1.048583  1.061224  1.060976  1.044898  1.032258  1.027778  1.027778  1.019685  1.019685 
dram[3]:  1.007782  1.007782  1.003846  1.007692  1.048780  1.032000  1.048780  1.044715  1.060729  1.056911  1.032129  1.032129  1.023810  1.015625  1.015686  1.007812 
dram[4]:  1.011765  1.011673  1.007752  1.011673  1.035857  1.036145  1.044534  1.048583  1.065574  1.065574  1.032258  1.019763  1.019763  1.023715  1.007752  1.015625 
dram[5]:  1.015686  1.015625  1.011628  1.003861  1.031873  1.036145  1.048780  1.048780  1.069672  1.065574  1.019841  1.027888  1.023715  1.023715  1.015686  1.023715 
dram[6]:  1.011765  1.007782  1.003831  1.003861  1.036145  1.040323  1.040323  1.040161  1.052632  1.052845  1.028226  1.028112  1.027778  1.031746  1.015625  1.015686 
dram[7]:  1.007812  1.007752  1.007692  1.011673  1.036145  1.040161  1.040323  1.036290  1.056911  1.056911  1.032389  1.028112  1.019763  1.023810  1.011673  1.007812 
dram[8]:  1.003876  1.003876  1.007722  1.007752  1.036145  1.036000  1.044534  1.044534  1.070539  1.070248  1.028112  1.032389  1.027778  1.031873  1.003876  1.003891 
dram[9]:  1.003861  1.007782  1.007722  1.007722  1.036145  1.036145  1.044177  1.044355  1.065844  1.065306  1.040486  1.036585  1.040000  1.040161  1.007812  1.011765 
dram[10]:  1.007782  1.011811  1.011628  1.007692  1.036145  1.040161  1.044715  1.048780  1.069672  1.074689  1.028112  1.028112  1.031746  1.027888  1.007812  1.007752 
average row locality = 45546/44262 = 1.029009
number of total memory accesses made:
dram[0]:         0         0         0         0         0         0         0         0         0         0         0         0         0         0         0         0 
dram[1]:         0         0         0         0         0         0         0         0         0         0         0         0         0         0         0         0 
dram[2]:         0         0         0         0         0         0         0         0         0         0         0         0         0         0         0         0 
dram[3]:         0         0         0         0         0         0         0         0         0         0         0         0         0         0         0         0 
dram[4]:         0         0         0         0         0         0         0         0         0         0         0         0         0         0         0         0 
dram[5]:         0         0         0         0         0         0         0         0         0         0         0         0         0         0         0         0 
dram[6]:         0         0         0         0         0         0         0         0         0         0         0         0         0         0         0         0 
dram[7]:         0         0         0         0         0         0         0         0         0         0         0         0         0         0         0         0 
dram[8]:         0         0         0         0         0         0         0         0         0         0         0         0         0         0         0         0 
dram[9]:         0         0         0         0         0         0         0         0         0         0         0         0         0         0         0         0 
dram[10]:         0         0         0         0         0         0         0         0         0         0         0         0         0         0         0         0 
total accesses: 0
min_bank_accesses = 0!
min_chip_accesses = 0!
number of total read accesses:
dram[0]:       260       258       259       261       259       258       258       258       261       262       254       256       260       258       259       259 
dram[1]:       260       259       260       259       259       258       257       259       260       259       258       257       258       260       259       258 
dram[2]:       259       259       260       260       258       258       258       259       260       261       256       256       259       259       259       259 
dram[3]:       259       259       261       262       258       258       258       257       262       260       257       257       258       260       259       258 
dram[4]:       258       260       260       260       260       258       258       259       260       260       256       258       258       259       260       260 
dram[5]:       259       260       261       260       259       258       258       258       261       260       257       258       259       259       259       259 
dram[6]:       258       259       262       260       258       258       258       259       260       259       255       256       259       260       260       259 
dram[7]:       258       260       262       260       258       259       258       257       260       260       255       256       258       258       260       258 
dram[8]:       259       259       261       260       258       259       258       258       258       259       256       255       259       259       259       258 
dram[9]:       260       259       261       261       258       258       260       259       259       261       257       255       260       259       258       258 
dram[10]:       259       257       261       262       258       259       257       258       261       259       256       256       260       258       258       260 
total reads: 45546
bank skew: 262/254 = 1.03
chip skew: 4145/4135 = 1.00
number of total write accesses:
dram[0]:         0         0         0         0         0         0         0         0         0         0         0         0         0         0         0         0 
dram[1]:         0         0         0         0         0         0         0         0         0         0         0         0         0         0         0         0 
dram[2]:         0         0         0         0         0         0         0         0         0         0         0         0         0         0         0         0 
dram[3]:         0         0         0         0         0         0         0         0         0         0         0         0         0         0         0         0 
dram[4]:         0         0         0         0         0         0         0         0         0         0         0         0         0         0         0         0 
dram[5]:         0         0         0         0         0         0         0         0         0         0         0         0         0         0         0         0 
dram[6]:         0         0         0         0         0         0         0         0         0         0         0         0         0         0         0         0 
dram[7]:         0         0         0         0         0         0         0         0         0         0         0         0         0         0         0         0 
dram[8]:         0         0         0         0         0         0         0         0         0         0         0         0         0         0         0         0 
dram[9]:         0         0         0         0         0         0         0         0         0         0         0         0         0         0         0         0 
dram[10]:         0         0         0         0         0         0         0         0         0         0         0         0         0         0         0         0 
total reads: 0
min_bank_accesses = 0!
min_chip_accesses = 0!
average mf latency per bank:
dram[0]:      35588     36895     32329     39786     41042     30893     29254     38100     41903     34753     44051     35590     43021     36504     32308     37813
dram[1]:      40238     38417     59184     40148     35944     33752     39804     36464     44487     44017     28951     37858     34193     34494     37241     35416
dram[2]:      42094     30333     49643     42062     34773     30707     36647     36586     32444     40856     43467     23461     39220     43372     31836     38241
dram[3]:      38419     42140    110817     40830     41270     37427     38110     36651     39030     39886     35842     40435     33745     36741     42020     32603
dram[4]:      37391     35552     45744     37601     30024     33693     32693     35275     42758     39399     40773     34523     36525     40895     32279     35568
dram[5]:      40336     40233     35192     45609     36721     32650     35209     40067     33761     44437     38405     31021     33009     38181     38235     33015
dram[6]:      35061     42577     43489     28720     30441     46026     39041     30162     42824     35582     37381     42363     31802     39480     37346     37496
dram[7]:      28113     39532     44964     35003     28747     41008     41175     33322     32855     39914     34153     32275     39875     34170     38739     37266
dram[8]:      40435     38227     40627     41523     33549     34443     37607     35023     39728     36601     39934     41956     28740     36280     36812     33344
dram[9]:      30609     39777     42857     34816     36693     39964     33536     36259     38496     39225     34823     38448     41135     28571     38616     46329
dram[10]:      44942     27720     33332     47193     41488     29316     36087     39324     45328     44511     33646     39285     35899     32913     32808     38667
maximum mf latency per bank:
dram[0]:     595039    795210    735424    586285    786485    735424    666171    786468    786469    666127    786515    786472    686879    786525    786480    686880
dram[1]:     706415    786503    786495    735422    666080    786504    735434    666090    786509    786507    666118    786480    710631    786514    786480    795209
dram[2]:     795219    786480    786495    735430    735442    666157    786468    786468    666081    786470    786512    665971    716588    786512    786525    795215
dram[3]:     665978    786480    786503    666134    735442    786495    695511    735434    786508    695516    710549    786510    686877    716586    786525    686884
dram[4]:     795214    595042    786472    735425    666158    786493    786471    735442    786511    786468    672503    786519    786511    686880    666135    795212
dram[5]:     795212    786490    586292    786503    735427    666080    786477    735442    735598    786473    786473    786516    786535    716586    706411    665964
dram[6]:     665988    795211    786482    666144    786467    786502    695511    786475    786511    695519    786472    786526    786518    716589    795210    786536
dram[7]:     786492    706413    735434    786510    666135    735425    786469    695517    666115    786514    786471    666140    786518    710549    795219    786500
dram[8]:     786492    795218    735429    786483    786502    735434    735439    786472    672403    666100    786511    786520    666131    786516    716587    595039
dram[9]:     595044    795216    735427    564731    786500    735434    735425    786470    786477    786508    666091    786476    786525    665951    795213    786516
dram[10]:     786502    665967    666155    786493    786509    666147    735425    786468    786468    786510    786509    710551    716585    786525    665975    795211
Memory Partition 0: 
Cache L2_bank_000:
MSHR contents

Cache L2_bank_001:
MSHR contents

In Dram Latency Queue (total = 0): 
DRAM[0]: 16 bks, busW=4 BL=8 CL=12, tRRD=2 tCCD=6, tRCD=12 tRAS=28 tRP=12 tRC=40
n_cmd=5849731 n_nop=5825147 n_act=4020 n_pre=4004 n_req=4140 n_rd=16560 n_write=0 bw_util=0.005662
n_activity=162417 dram_eff=0.2039
bk0: 1040a 5841436i bk1: 1032a 5841447i bk2: 1036a 5841492i bk3: 1044a 5841315i bk4: 1036a 5841629i bk5: 1032a 5841541i bk6: 1032a 5841660i bk7: 1032a 5841644i bk8: 1044a 5841872i bk9: 1048a 5841818i bk10: 1016a 5841805i bk11: 1024a 5841753i bk12: 1040a 5841553i bk13: 1032a 5841570i bk14: 1036a 5841540i bk15: 1036a 5841386i 
dram_util_bins: 0 0 0 0 0 0 0 0 0 0
dram_eff_bins: 0 0 0 0 0 0 0 0 0 0
mrqq: max=2 avg=4.5985e-05
Memory Partition 1: 
Cache L2_bank_002:
MSHR contents

Cache L2_bank_003:
MSHR contents

In Dram Latency Queue (total = 0): 
DRAM[1]: 16 bks, busW=4 BL=8 CL=12, tRRD=2 tCCD=6, tRCD=12 tRAS=28 tRP=12 tRC=40
n_cmd=5849731 n_nop=5825157 n_act=4015 n_pre=3999 n_req=4140 n_rd=16560 n_write=0 bw_util=0.005662
n_activity=160267 dram_eff=0.2067
bk0: 1040a 5841399i bk1: 1036a 5841316i bk2: 1040a 5841444i bk3: 1036a 5841390i bk4: 1036a 5841629i bk5: 1032a 5841541i bk6: 1028a 5841796i bk7: 1036a 5841673i bk8: 1040a 5841784i bk9: 1036a 5841788i bk10: 1032a 5841759i bk11: 1028a 5841715i bk12: 1032a 5841692i bk13: 1040a 5841571i bk14: 1036a 5841551i bk15: 1032a 5841547i 
dram_util_bins: 0 0 0 0 0 0 0 0 0 0
dram_eff_bins: 0 0 0 0 0 0 0 0 0 0
mrqq: max=2 avg=6.42765e-05
Memory Partition 2: 
Cache L2_bank_004:
MSHR contents

Cache L2_bank_005:
MSHR contents

In Dram Latency Queue (total = 0): 
DRAM[2]: 16 bks, busW=4 BL=8 CL=12, tRRD=2 tCCD=6, tRCD=12 tRAS=28 tRP=12 tRC=40
n_cmd=5849731 n_nop=5825153 n_act=4017 n_pre=4001 n_req=4140 n_rd=16560 n_write=0 bw_util=0.005662
n_activity=160638 dram_eff=0.2062
bk0: 1036a 5841477i bk1: 1036a 5841417i bk2: 1040a 5841408i bk3: 1040a 5841398i bk4: 1032a 5841659i bk5: 1032a 5841559i bk6: 1032a 5841721i bk7: 1036a 5841660i bk8: 1040a 5841771i bk9: 1044a 5841675i bk10: 1024a 5841836i bk11: 1024a 5841709i bk12: 1036a 5841638i bk13: 1036a 5841546i bk14: 1036a 5841576i bk15: 1036a 5841488i 
dram_util_bins: 0 0 0 0 0 0 0 0 0 0
dram_eff_bins: 0 0 0 0 0 0 0 0 0 0
mrqq: max=2 avg=5.50453e-05
Memory Partition 3: 
Cache L2_bank_006:
MSHR contents

Cache L2_bank_007:
MSHR contents

In Dram Latency Queue (total = 0): 
DRAM[3]: 16 bks, busW=4 BL=8 CL=12, tRRD=2 tCCD=6, tRCD=12 tRAS=28 tRP=12 tRC=40
n_cmd=5849731 n_nop=5825111 n_act=4032 n_pre=4016 n_req=4143 n_rd=16572 n_write=0 bw_util=0.005666
n_activity=161186 dram_eff=0.2056
bk0: 1036a 5841487i bk1: 1036a 5841409i bk2: 1044a 5841421i bk3: 1048a 5841289i bk4: 1032a 5841751i bk5: 1032a 5841577i bk6: 1032a 5841732i bk7: 1028a 5841661i bk8: 1048a 5841717i bk9: 1040a 5841698i bk10: 1028a 5841671i bk11: 1028a 5841621i bk12: 1032a 5841637i bk13: 1040a 5841454i bk14: 1036a 5841535i bk15: 1032a 5841469i 
dram_util_bins: 0 0 0 0 0 0 0 0 0 0
dram_eff_bins: 0 0 0 0 0 0 0 0 0 0
mrqq: max=2 avg=4.01728e-05
Memory Partition 4: 
Cache L2_bank_008:
MSHR contents

Cache L2_bank_009:
MSHR contents

In Dram Latency Queue (total = 0): 
DRAM[4]: 16 bks, busW=4 BL=8 CL=12, tRRD=2 tCCD=6, tRCD=12 tRAS=28 tRP=12 tRC=40
n_cmd=5849731 n_nop=5825111 n_act=4030 n_pre=4014 n_req=4144 n_rd=16576 n_write=0 bw_util=0.005667
n_activity=161453 dram_eff=0.2053
bk0: 1032a 5841550i bk1: 1040a 5841406i bk2: 1040a 5841384i bk3: 1040a 5841361i bk4: 1040a 5841603i bk5: 1032a 5841598i bk6: 1032a 5841742i bk7: 1036a 5841663i bk8: 1040a 5841772i bk9: 1040a 5841748i bk10: 1024a 5841776i bk11: 1032a 5841566i bk12: 1032a 5841606i bk13: 1036a 5841529i bk14: 1040a 5841472i bk15: 1040a 5841441i 
dram_util_bins: 0 0 0 0 0 0 0 0 0 0
dram_eff_bins: 0 0 0 0 0 0 0 0 0 0
mrqq: max=2 avg=4.75236e-05
Memory Partition 5: 
Cache L2_bank_010:
MSHR contents

Cache L2_bank_011:
MSHR contents

In Dram Latency Queue (total = 0): 
DRAM[5]: 16 bks, busW=4 BL=8 CL=12, tRRD=2 tCCD=6, tRCD=12 tRAS=28 tRP=12 tRC=40
n_cmd=5849731 n_nop=5825117 n_act=4025 n_pre=4009 n_req=4145 n_rd=16580 n_write=0 bw_util=0.005669
n_activity=160773 dram_eff=0.2063
bk0: 1036a 5841576i bk1: 1040a 5841424i bk2: 1044a 5841459i bk3: 1040a 5841350i bk4: 1036a 5841599i bk5: 1032a 5841586i bk6: 1032a 5841714i bk7: 1032a 5841672i bk8: 1044a 5841789i bk9: 1040a 5841752i bk10: 1028a 5841607i bk11: 1032a 5841589i bk12: 1036a 5841585i bk13: 1036a 5841547i bk14: 1036a 5841513i bk15: 1036a 5841520i 
dram_util_bins: 0 0 0 0 0 0 0 0 0 0
dram_eff_bins: 0 0 0 0 0 0 0 0 0 0
mrqq: max=2 avg=5.19682e-05
Memory Partition 6: 
Cache L2_bank_012:
MSHR contents

Cache L2_bank_013:
MSHR contents

In Dram Latency Queue (total = 0): 
DRAM[6]: 16 bks, busW=4 BL=8 CL=12, tRRD=2 tCCD=6, tRCD=12 tRAS=28 tRP=12 tRC=40
n_cmd=5849731 n_nop=5825125 n_act=4031 n_pre=4015 n_req=4140 n_rd=16560 n_write=0 bw_util=0.005662
n_activity=162180 dram_eff=0.2042
bk0: 1032a 5841540i bk1: 1036a 5841428i bk2: 1048a 5841352i bk3: 1040a 5841303i bk4: 1032a 5841683i bk5: 1032a 5841602i bk6: 1032a 5841689i bk7: 1036a 5841608i bk8: 1040a 5841723i bk9: 1036a 5841706i bk10: 1020a 5841766i bk11: 1024a 5841664i bk12: 1036a 5841611i bk13: 1040a 5841552i bk14: 1040a 5841506i bk15: 1036a 5841493i 
dram_util_bins: 0 0 0 0 0 0 0 0 0 0
dram_eff_bins: 0 0 0 0 0 0 0 0 0 0
mrqq: max=1 avg=5.77804e-05
Memory Partition 7: 
Cache L2_bank_014:
MSHR contents

Cache L2_bank_015:
MSHR contents

In Dram Latency Queue (total = 0): 
DRAM[7]: 16 bks, busW=4 BL=8 CL=12, tRRD=2 tCCD=6, tRCD=12 tRAS=28 tRP=12 tRC=40
n_cmd=5849731 n_nop=5825137 n_act=4031 n_pre=4015 n_req=4137 n_rd=16548 n_write=0 bw_util=0.005658
n_activity=161373 dram_eff=0.2051
bk0: 1032a 5841497i bk1: 1040a 5841371i bk2: 1048a 5841373i bk3: 1040a 5841388i bk4: 1032a 5841633i bk5: 1036a 5841608i bk6: 1032a 5841726i bk7: 1028a 5841663i bk8: 1040a 5841709i bk9: 1040a 5841690i bk10: 1020a 5841797i bk11: 1024a 5841666i bk12: 1032a 5841640i bk13: 1032a 5841544i bk14: 1040a 5841472i bk15: 1032a 5841395i 
dram_util_bins: 0 0 0 0 0 0 0 0 0 0
dram_eff_bins: 0 0 0 0 0 0 0 0 0 0
mrqq: max=2 avg=6.37636e-05
Memory Partition 8: 
Cache L2_bank_016:
MSHR contents

Cache L2_bank_017:
MSHR contents

In Dram Latency Queue (total = 0): 
DRAM[8]: 16 bks, busW=4 BL=8 CL=12, tRRD=2 tCCD=6, tRCD=12 tRAS=28 tRP=12 tRC=40
n_cmd=5849731 n_nop=5825161 n_act=4023 n_pre=4007 n_req=4135 n_rd=16540 n_write=0 bw_util=0.005655
n_activity=161397 dram_eff=0.205
bk0: 1036a 5841447i bk1: 1036a 5841374i bk2: 1044a 5841401i bk3: 1040a 5841299i bk4: 1032a 5841678i bk5: 1036a 5841563i bk6: 1032a 5841703i bk7: 1032a 5841666i bk8: 1032a 5841913i bk9: 1036a 5841805i bk10: 1024a 5841709i bk11: 1020a 5841736i bk12: 1036a 5841634i bk13: 1036a 5841576i bk14: 1036a 5841481i bk15: 1032a 5841414i 
dram_util_bins: 0 0 0 0 0 0 0 0 0 0
dram_eff_bins: 0 0 0 0 0 0 0 0 0 0
mrqq: max=2 avg=7.33367e-05
Memory Partition 9: 
Cache L2_bank_018:
MSHR contents

Cache L2_bank_019:
MSHR contents

In Dram Latency Queue (total = 0): 
DRAM[9]: 16 bks, busW=4 BL=8 CL=12, tRRD=2 tCCD=6, tRCD=12 tRAS=28 tRP=12 tRC=40
n_cmd=5849731 n_nop=5825135 n_act=4020 n_pre=4004 n_req=4143 n_rd=16572 n_write=0 bw_util=0.005666
n_activity=161244 dram_eff=0.2056
bk0: 1040a 5841421i bk1: 1036a 5841415i bk2: 1044a 5841396i bk3: 1044a 5841298i bk4: 1032a 5841620i bk5: 1032a 5841598i bk6: 1040a 5841676i bk7: 1036a 5841641i bk8: 1036a 5841822i bk9: 1044a 5841718i bk10: 1028a 5841799i bk11: 1020a 5841760i bk12: 1040a 5841684i bk13: 1036a 5841618i bk14: 1032a 5841549i bk15: 1032a 5841439i 
dram_util_bins: 0 0 0 0 0 0 0 0 0 0
dram_eff_bins: 0 0 0 0 0 0 0 0 0 0
mrqq: max=2 avg=3.05997e-05
Memory Partition 10: 
Cache L2_bank_020:
MSHR contents

Cache L2_bank_021:
MSHR contents

In Dram Latency Queue (total = 0): 
DRAM[10]: 16 bks, busW=4 BL=8 CL=12, tRRD=2 tCCD=6, tRCD=12 tRAS=28 tRP=12 tRC=40
n_cmd=5849731 n_nop=5825153 n_act=4019 n_pre=4003 n_req=4139 n_rd=16556 n_write=0 bw_util=0.00566
n_activity=161667 dram_eff=0.2048
bk0: 1036a 5841441i bk1: 1028a 5841487i bk2: 1044a 5841430i bk3: 1048a 5841258i bk4: 1032a 5841633i bk5: 1036a 5841565i bk6: 1028a 5841719i bk7: 1032a 5841707i bk8: 1044a 5841833i bk9: 1036a 5841847i bk10: 1024a 5841779i bk11: 1024a 5841699i bk12: 1040a 5841673i bk13: 1032a 5841585i bk14: 1032a 5841543i bk15: 1040a 5841393i 
dram_util_bins: 0 0 0 0 0 0 0 0 0 0
dram_eff_bins: 0 0 0 0 0 0 0 0 0 0
mrqq: max=2 avg=3.84633e-05

========= L2 cache stats =========
L2_cache_bank[0]: Access = 69063, Miss = 2070, Miss_rate = 0.030, Pending_hits = 4, Reservation_fails = 0
L2_cache_bank[1]: Access = 69058, Miss = 2070, Miss_rate = 0.030, Pending_hits = 0, Reservation_fails = 0
L2_cache_bank[2]: Access = 69090, Miss = 2071, Miss_rate = 0.030, Pending_hits = 0, Reservation_fails = 0
L2_cache_bank[3]: Access = 69090, Miss = 2069, Miss_rate = 0.030, Pending_hits = 0, Reservation_fails = 0
L2_cache_bank[4]: Access = 69090, Miss = 2069, Miss_rate = 0.030, Pending_hits = 1, Reservation_fails = 0
L2_cache_bank[5]: Access = 69090, Miss = 2071, Miss_rate = 0.030, Pending_hits = 0, Reservation_fails = 0
L2_cache_bank[6]: Access = 70306, Miss = 2072, Miss_rate = 0.029, Pending_hits = 37, Reservation_fails = 0
L2_cache_bank[7]: Access = 70306, Miss = 2071, Miss_rate = 0.029, Pending_hits = 0, Reservation_fails = 0
L2_cache_bank[8]: Access = 70311, Miss = 2070, Miss_rate = 0.029, Pending_hits = 4, Reservation_fails = 0
L2_cache_bank[9]: Access = 70311, Miss = 2074, Miss_rate = 0.029, Pending_hits = 4, Reservation_fails = 0
L2_cache_bank[10]: Access = 70311, Miss = 2073, Miss_rate = 0.029, Pending_hits = 4, Reservation_fails = 0
L2_cache_bank[11]: Access = 70311, Miss = 2072, Miss_rate = 0.029, Pending_hits = 2, Reservation_fails = 0
L2_cache_bank[12]: Access = 69078, Miss = 2070, Miss_rate = 0.030, Pending_hits = 0, Reservation_fails = 0
L2_cache_bank[13]: Access = 69073, Miss = 2070, Miss_rate = 0.030, Pending_hits = 0, Reservation_fails = 0
L2_cache_bank[14]: Access = 69073, Miss = 2069, Miss_rate = 0.030, Pending_hits = 0, Reservation_fails = 0
L2_cache_bank[15]: Access = 69073, Miss = 2068, Miss_rate = 0.030, Pending_hits = 1, Reservation_fails = 0
L2_cache_bank[16]: Access = 69073, Miss = 2068, Miss_rate = 0.030, Pending_hits = 1, Reservation_fails = 0
L2_cache_bank[17]: Access = 69073, Miss = 2067, Miss_rate = 0.030, Pending_hits = 0, Reservation_fails = 0
L2_cache_bank[18]: Access = 70274, Miss = 2073, Miss_rate = 0.029, Pending_hits = 0, Reservation_fails = 0
L2_cache_bank[19]: Access = 70274, Miss = 2070, Miss_rate = 0.029, Pending_hits = 0, Reservation_fails = 0
L2_cache_bank[20]: Access = 70274, Miss = 2070, Miss_rate = 0.029, Pending_hits = 0, Reservation_fails = 0
L2_cache_bank[21]: Access = 69666, Miss = 2069, Miss_rate = 0.030, Pending_hits = 0, Reservation_fails = 0
L2_total_cache_accesses = 1531268
L2_total_cache_misses = 45546
L2_total_cache_miss_rate = 0.0297
L2_total_cache_pending_hits = 58
L2_total_cache_reservation_fails = 0
L2_total_cache_breakdown:
	L2_cache_stats_breakdown[GLOBAL_ACC_R][HIT] = 1440058
	L2_cache_stats_breakdown[GLOBAL_ACC_R][HIT_RESERVED] = 40
	L2_cache_stats_breakdown[GLOBAL_ACC_R][MISS] = 45540
	L2_cache_stats_breakdown[GLOBAL_ACC_R][RESERVATION_FAIL] = 0
	L2_cache_stats_breakdown[LOCAL_ACC_R][HIT] = 0
	L2_cache_stats_breakdown[LOCAL_ACC_R][HIT_RESERVED] = 0
	L2_cache_stats_breakdown[LOCAL_ACC_R][MISS] = 0
	L2_cache_stats_breakdown[LOCAL_ACC_R][RESERVATION_FAIL] = 0
	L2_cache_stats_breakdown[CONST_ACC_R][HIT] = 0
	L2_cache_stats_breakdown[CONST_ACC_R][HIT_RESERVED] = 4
	L2_cache_stats_breakdown[CONST_ACC_R][MISS] = 1
	L2_cache_stats_breakdown[CONST_ACC_R][RESERVATION_FAIL] = 0
	L2_cache_stats_breakdown[TEXTURE_ACC_R][HIT] = 0
	L2_cache_stats_breakdown[TEXTURE_ACC_R][HIT_RESERVED] = 0
	L2_cache_stats_breakdown[TEXTURE_ACC_R][MISS] = 0
	L2_cache_stats_breakdown[TEXTURE_ACC_R][RESERVATION_FAIL] = 0
	L2_cache_stats_breakdown[GLOBAL_ACC_W][HIT] = 45600
	L2_cache_stats_breakdown[GLOBAL_ACC_W][HIT_RESERVED] = 0
	L2_cache_stats_breakdown[GLOBAL_ACC_W][MISS] = 0
	L2_cache_stats_breakdown[GLOBAL_ACC_W][RESERVATION_FAIL] = 0
	L2_cache_stats_breakdown[LOCAL_ACC_W][HIT] = 0
	L2_cache_stats_breakdown[LOCAL_ACC_W][HIT_RESERVED] = 0
	L2_cache_stats_breakdown[LOCAL_ACC_W][MISS] = 0
	L2_cache_stats_breakdown[LOCAL_ACC_W][RESERVATION_FAIL] = 0
	L2_cache_stats_breakdown[L1_WRBK_ACC][HIT] = 0
	L2_cache_stats_breakdown[L1_WRBK_ACC][HIT_RESERVED] = 0
	L2_cache_stats_breakdown[L1_WRBK_ACC][MISS] = 0
	L2_cache_stats_breakdown[L1_WRBK_ACC][RESERVATION_FAIL] = 0
	L2_cache_stats_breakdown[L2_WRBK_ACC][HIT] = 0
	L2_cache_stats_breakdown[L2_WRBK_ACC][HIT_RESERVED] = 0
	L2_cache_stats_breakdown[L2_WRBK_ACC][MISS] = 0
	L2_cache_stats_breakdown[L2_WRBK_ACC][RESERVATION_FAIL] = 0
	L2_cache_stats_breakdown[INST_ACC_R][HIT] = 6
	L2_cache_stats_breakdown[INST_ACC_R][HIT_RESERVED] = 14
	L2_cache_stats_breakdown[INST_ACC_R][MISS] = 5
	L2_cache_stats_breakdown[INST_ACC_R][RESERVATION_FAIL] = 0
	L2_cache_stats_breakdown[L1_WR_ALLOC_R][HIT] = 0
	L2_cache_stats_breakdown[L1_WR_ALLOC_R][HIT_RESERVED] = 0
	L2_cache_stats_breakdown[L1_WR_ALLOC_R][MISS] = 0
	L2_cache_stats_breakdown[L1_WR_ALLOC_R][RESERVATION_FAIL] = 0
	L2_cache_stats_breakdown[L2_WR_ALLOC_R][HIT] = 0
	L2_cache_stats_breakdown[L2_WR_ALLOC_R][HIT_RESERVED] = 0
	L2_cache_stats_breakdown[L2_WR_ALLOC_R][MISS] = 0
	L2_cache_stats_breakdown[L2_WR_ALLOC_R][RESERVATION_FAIL] = 0
	L2_cache_stats_breakdown[GLOBAL_ACC_R][TOTAL_ACCESS] = 1485638
	L2_cache_stats_breakdown[CONST_ACC_R][TOTAL_ACCESS] = 5
	L2_cache_stats_breakdown[GLOBAL_ACC_W][TOTAL_ACCESS] = 45600
	L2_cache_stats_breakdown[INST_ACC_R][TOTAL_ACCESS] = 25
L2_cache_data_port_util = 0.023
L2_cache_fill_port_util = 0.003

icnt_total_pkts_mem_to_simt=3017128
icnt_total_pkts_simt_to_mem=1711268
LD_mem_lat_dist  0 0 0 0 0 0 0 0 0 0 0 0 0 0 0 0 0 0 0 0 0 0 0 0 0 0 0
ST_mem_lat_dist  0 0 0 0 0 0 0 0 0 0 0 0 0 0 0 0 0 0 0 0 0 0 0 0 0 0 0
----------------------------Interconnect-DETAILS--------------------------------
Class 0:
Packet latency average = 58.2135
	minimum = 6
	maximum = 570
Network latency average = 43.5861
	minimum = 6
	maximum = 330
Slowest packet = 6343
Flit latency average = 51.3246
	minimum = 6
	maximum = 329
Slowest flit = 257466
Fragmentation average = 1.11019e-05
	minimum = 0
	maximum = 20
Injected packet rate average = 0.00972127
	minimum = 0 (at node 0)
	maximum = 0.0518061 (at node 1)
Accepted packet rate average = 0.00972127
	minimum = 0 (at node 0)
	maximum = 0.0518061 (at node 1)
Injected flit rate average = 0.0150091
	minimum = 0 (at node 0)
	maximum = 0.0579006 (at node 1)
Accepted flit rate average= 0.0150091
	minimum = 0 (at node 0)
	maximum = 0.102095 (at node 1)
Injected packet length average = 1.54395
Accepted packet length average = 1.54395
Total in-flight flits = 0 (0 measured)
====== Overall Traffic Statistics ======
====== Traffic class 0 ======
Packet latency average = 58.2135 (1 samples)
	minimum = 6 (1 samples)
	maximum = 570 (1 samples)
Network latency average = 43.5861 (1 samples)
	minimum = 6 (1 samples)
	maximum = 330 (1 samples)
Flit latency average = 51.3246 (1 samples)
	minimum = 6 (1 samples)
	maximum = 329 (1 samples)
Fragmentation average = 1.11019e-05 (1 samples)
	minimum = 0 (1 samples)
	maximum = 20 (1 samples)
Injected packet rate average = 0.00972127 (1 samples)
	minimum = 0 (1 samples)
	maximum = 0.0518061 (1 samples)
Accepted packet rate average = 0.00972127 (1 samples)
	minimum = 0 (1 samples)
	maximum = 0.0518061 (1 samples)
Injected flit rate average = 0.0150091 (1 samples)
	minimum = 0 (1 samples)
	maximum = 0.0579006 (1 samples)
Accepted flit rate average = 0.0150091 (1 samples)
	minimum = 0 (1 samples)
	maximum = 0.102095 (1 samples)
Injected packet size average = 1.54395 (1 samples)
Accepted packet size average = 1.54395 (1 samples)
Hops average = 1 (1 samples)
----------------------------END-of-Interconnect-DETAILS-------------------------


gpgpu_simulation_time = 0 days, 0 hrs, 12 min, 20 sec (740 sec)
gpgpu_simulation_rate = 8955 (inst/sec)
gpgpu_simulation_rate = 4557 (cycle/sec)

GPGPU-Sim PTX: cudaLaunch for 0x0x4010a2 (mode=performance simulation) on stream 0
GPGPU-Sim PTX: pushing kernel '_Z12atax_kernel2PfS_S_' to stream 0, gridDim= (5,1,1) blockDim = (256,1,1) 
GPGPU-Sim uArch: Shader 6 bind to kernel 2 '_Z12atax_kernel2PfS_S_'
GPGPU-Sim uArch: CTA/core = 8, limited by: threads
GPGPU-Sim uArch: Shader 7 bind to kernel 2 '_Z12atax_kernel2PfS_S_'
GPGPU-Sim uArch: Shader 8 bind to kernel 2 '_Z12atax_kernel2PfS_S_'
GPGPU-Sim uArch: Shader 9 bind to kernel 2 '_Z12atax_kernel2PfS_S_'
GPGPU-Sim uArch: Shader 10 bind to kernel 2 '_Z12atax_kernel2PfS_S_'
Destroy streams for kernel 2: size 0
kernel_name = _Z12atax_kernel2PfS_S_ 
kernel_launch_uid = 2 
gpu_sim_cycle = 1170196
gpu_sim_insn = 6738800
gpu_ipc =       5.7587
gpu_tot_sim_cycle = 4764843
gpu_tot_sim_insn = 13366000
gpu_tot_ipc =       2.8051
gpu_tot_issued_cta = 10
max_total_param_size = 0
gpu_stall_dramfull = 63686
gpu_stall_icnt2sh    = 5589555
partiton_reqs_in_parallel = 25744310
partiton_reqs_in_parallel_total    = 69243950
partiton_level_parallism =      22.0000
partiton_level_parallism_total  =      19.9352
partiton_reqs_in_parallel_util = 25744310
partiton_reqs_in_parallel_util_total    = 69243950
gpu_sim_cycle_parition_util = 1170196
gpu_tot_sim_cycle_parition_util    = 3150347
partiton_level_parallism_util =      22.0000
partiton_level_parallism_util_total  =      21.9853
partiton_replys_in_parallel = 159073
partiton_replys_in_parallel_total    = 1531268
L2_BW  =      12.8847 GB/Sec
L2_BW_total  =      33.6249 GB/Sec
gpu_total_sim_rate=13116

========= Core cache stats =========
L1I_cache:
	L1I_total_cache_accesses = 217384
	L1I_total_cache_misses = 363
	L1I_total_cache_miss_rate = 0.0017
	L1I_total_cache_pending_hits = 0
	L1I_total_cache_reservation_fails = 0
L1D_cache:
	L1D_cache_core[0]: Access = 0, Miss = 0, Miss_rate = -nan, Pending_hits = 0, Reservation_fails = 0
	L1D_cache_core[1]: Access = 0, Miss = 0, Miss_rate = -nan, Pending_hits = 0, Reservation_fails = 0
	L1D_cache_core[2]: Access = 0, Miss = 0, Miss_rate = -nan, Pending_hits = 0, Reservation_fails = 0
	L1D_cache_core[3]: Access = 0, Miss = 0, Miss_rate = -nan, Pending_hits = 0, Reservation_fails = 0
	L1D_cache_core[4]: Access = 0, Miss = 0, Miss_rate = -nan, Pending_hits = 0, Reservation_fails = 0
	L1D_cache_core[5]: Access = 0, Miss = 0, Miss_rate = -nan, Pending_hits = 0, Reservation_fails = 0
	L1D_cache_core[6]: Access = 0, Miss = 0, Miss_rate = -nan, Pending_hits = 0, Reservation_fails = 0
	L1D_cache_core[7]: Access = 0, Miss = 0, Miss_rate = -nan, Pending_hits = 0, Reservation_fails = 0
	L1D_cache_core[8]: Access = 0, Miss = 0, Miss_rate = -nan, Pending_hits = 0, Reservation_fails = 0
	L1D_cache_core[9]: Access = 0, Miss = 0, Miss_rate = -nan, Pending_hits = 0, Reservation_fails = 0
	L1D_cache_core[10]: Access = 0, Miss = 0, Miss_rate = -nan, Pending_hits = 0, Reservation_fails = 0
	L1D_cache_core[11]: Access = 0, Miss = 0, Miss_rate = -nan, Pending_hits = 0, Reservation_fails = 0
	L1D_cache_core[12]: Access = 0, Miss = 0, Miss_rate = -nan, Pending_hits = 0, Reservation_fails = 0
	L1D_cache_core[13]: Access = 0, Miss = 0, Miss_rate = -nan, Pending_hits = 0, Reservation_fails = 0
	L1D_cache_core[14]: Access = 0, Miss = 0, Miss_rate = -nan, Pending_hits = 0, Reservation_fails = 0
	L1D_cache_core[15]: Access = 0, Miss = 0, Miss_rate = -nan, Pending_hits = 0, Reservation_fails = 0
	L1D_cache_core[16]: Access = 0, Miss = 0, Miss_rate = -nan, Pending_hits = 0, Reservation_fails = 0
	L1D_cache_core[17]: Access = 0, Miss = 0, Miss_rate = -nan, Pending_hits = 0, Reservation_fails = 0
	L1D_cache_core[18]: Access = 0, Miss = 0, Miss_rate = -nan, Pending_hits = 0, Reservation_fails = 0
	L1D_cache_core[19]: Access = 0, Miss = 0, Miss_rate = -nan, Pending_hits = 0, Reservation_fails = 0
	L1D_cache_core[20]: Access = 0, Miss = 0, Miss_rate = -nan, Pending_hits = 0, Reservation_fails = 0
	L1D_cache_core[21]: Access = 0, Miss = 0, Miss_rate = -nan, Pending_hits = 0, Reservation_fails = 0
	L1D_cache_core[22]: Access = 0, Miss = 0, Miss_rate = -nan, Pending_hits = 0, Reservation_fails = 0
	L1D_cache_core[23]: Access = 0, Miss = 0, Miss_rate = -nan, Pending_hits = 0, Reservation_fails = 0
	L1D_cache_core[24]: Access = 0, Miss = 0, Miss_rate = -nan, Pending_hits = 0, Reservation_fails = 0
	L1D_cache_core[25]: Access = 0, Miss = 0, Miss_rate = -nan, Pending_hits = 0, Reservation_fails = 0
	L1D_cache_core[26]: Access = 0, Miss = 0, Miss_rate = -nan, Pending_hits = 0, Reservation_fails = 0
	L1D_cache_core[27]: Access = 0, Miss = 0, Miss_rate = -nan, Pending_hits = 0, Reservation_fails = 0
	L1D_total_cache_accesses = 0
	L1D_total_cache_misses = 0
	L1D_total_cache_pending_hits = 0
	L1D_total_cache_reservation_fails = 0
	L1D_cache_data_port_util = 0.000
	L1D_cache_fill_port_util = 0.000
L1C_cache:
	L1C_total_cache_accesses = 240
	L1C_total_cache_misses = 200
	L1C_total_cache_miss_rate = 0.8333
	L1C_total_cache_pending_hits = 0
	L1C_total_cache_reservation_fails = 0
L1T_cache:
	L1T_total_cache_accesses = 0
	L1T_total_cache_misses = 0
	L1T_total_cache_pending_hits = 0
	L1T_total_cache_reservation_fails = 0

Total_core_cache_stats:
	Total_core_cache_stats_breakdown[GLOBAL_ACC_R][HIT] = 0
	Total_core_cache_stats_breakdown[GLOBAL_ACC_R][HIT_RESERVED] = 0
	Total_core_cache_stats_breakdown[GLOBAL_ACC_R][MISS] = 0
	Total_core_cache_stats_breakdown[GLOBAL_ACC_R][RESERVATION_FAIL] = 0
	Total_core_cache_stats_breakdown[LOCAL_ACC_R][HIT] = 0
	Total_core_cache_stats_breakdown[LOCAL_ACC_R][HIT_RESERVED] = 0
	Total_core_cache_stats_breakdown[LOCAL_ACC_R][MISS] = 0
	Total_core_cache_stats_breakdown[LOCAL_ACC_R][RESERVATION_FAIL] = 0
	Total_core_cache_stats_breakdown[CONST_ACC_R][HIT] = 40
	Total_core_cache_stats_breakdown[CONST_ACC_R][HIT_RESERVED] = 0
	Total_core_cache_stats_breakdown[CONST_ACC_R][MISS] = 200
	Total_core_cache_stats_breakdown[CONST_ACC_R][RESERVATION_FAIL] = 0
	Total_core_cache_stats_breakdown[TEXTURE_ACC_R][HIT] = 0
	Total_core_cache_stats_breakdown[TEXTURE_ACC_R][HIT_RESERVED] = 0
	Total_core_cache_stats_breakdown[TEXTURE_ACC_R][MISS] = 0
	Total_core_cache_stats_breakdown[TEXTURE_ACC_R][RESERVATION_FAIL] = 0
	Total_core_cache_stats_breakdown[GLOBAL_ACC_W][HIT] = 0
	Total_core_cache_stats_breakdown[GLOBAL_ACC_W][HIT_RESERVED] = 0
	Total_core_cache_stats_breakdown[GLOBAL_ACC_W][MISS] = 0
	Total_core_cache_stats_breakdown[GLOBAL_ACC_W][RESERVATION_FAIL] = 0
	Total_core_cache_stats_breakdown[LOCAL_ACC_W][HIT] = 0
	Total_core_cache_stats_breakdown[LOCAL_ACC_W][HIT_RESERVED] = 0
	Total_core_cache_stats_breakdown[LOCAL_ACC_W][MISS] = 0
	Total_core_cache_stats_breakdown[LOCAL_ACC_W][RESERVATION_FAIL] = 0
	Total_core_cache_stats_breakdown[L1_WRBK_ACC][HIT] = 0
	Total_core_cache_stats_breakdown[L1_WRBK_ACC][HIT_RESERVED] = 0
	Total_core_cache_stats_breakdown[L1_WRBK_ACC][MISS] = 0
	Total_core_cache_stats_breakdown[L1_WRBK_ACC][RESERVATION_FAIL] = 0
	Total_core_cache_stats_breakdown[L2_WRBK_ACC][HIT] = 0
	Total_core_cache_stats_breakdown[L2_WRBK_ACC][HIT_RESERVED] = 0
	Total_core_cache_stats_breakdown[L2_WRBK_ACC][MISS] = 0
	Total_core_cache_stats_breakdown[L2_WRBK_ACC][RESERVATION_FAIL] = 0
	Total_core_cache_stats_breakdown[INST_ACC_R][HIT] = 217021
	Total_core_cache_stats_breakdown[INST_ACC_R][HIT_RESERVED] = 0
	Total_core_cache_stats_breakdown[INST_ACC_R][MISS] = 363
	Total_core_cache_stats_breakdown[INST_ACC_R][RESERVATION_FAIL] = 0
	Total_core_cache_stats_breakdown[L1_WR_ALLOC_R][HIT] = 0
	Total_core_cache_stats_breakdown[L1_WR_ALLOC_R][HIT_RESERVED] = 0
	Total_core_cache_stats_breakdown[L1_WR_ALLOC_R][MISS] = 0
	Total_core_cache_stats_breakdown[L1_WR_ALLOC_R][RESERVATION_FAIL] = 0
	Total_core_cache_stats_breakdown[L2_WR_ALLOC_R][HIT] = 0
	Total_core_cache_stats_breakdown[L2_WR_ALLOC_R][HIT_RESERVED] = 0
	Total_core_cache_stats_breakdown[L2_WR_ALLOC_R][MISS] = 0
	Total_core_cache_stats_breakdown[L2_WR_ALLOC_R][RESERVATION_FAIL] = 0
	Total_core_cache_stats_breakdown[CONST_ACC_R][TOTAL_ACCESS] = 240
	Total_core_cache_stats_breakdown[INST_ACC_R][TOTAL_ACCESS] = 217384
Shader 0 warp_id issue ditsribution:
warp_id:

distro:

gpgpu_n_tot_thrd_icount = 13548736
gpgpu_n_tot_w_icount = 423398
gpgpu_n_stall_shd_mem = 1421496
gpgpu_n_mem_read_local = 0
gpgpu_n_mem_write_local = 0
gpgpu_n_mem_read_global = 1599076
gpgpu_n_mem_write_global = 91200
gpgpu_n_mem_texture = 0
gpgpu_n_mem_const = 10
gpgpu_n_load_insn  = 5762400
gpgpu_n_store_insn = 2880000
gpgpu_n_shmem_insn = 0
gpgpu_n_tex_insn = 0
gpgpu_n_const_mem_insn = 0
gpgpu_n_param_mem_insn = 7680
gpgpu_n_shmem_bkconflict = 0
gpgpu_n_cache_bkconflict = 0
gpgpu_n_intrawarp_mshr_merge = 0
gpgpu_n_cmem_portconflict = 0
gpgpu_stall_shd_mem[c_mem][bk_conf] = 0
gpgpu_stall_shd_mem[c_mem][mshr_rc] = 0
gpgpu_stall_shd_mem[c_mem][icnt_rc] = 0
gpgpu_stall_shd_mem[c_mem][data_port_stall] = 0
gpgpu_stall_shd_mem[t_mem][mshr_rc] = 0
gpgpu_stall_shd_mem[t_mem][icnt_rc] = 0
gpgpu_stall_shd_mem[t_mem][data_port_stall] = 0
gpgpu_stall_shd_mem[s_mem][bk_conf] = 0
gpgpu_stall_shd_mem[gl_mem][bk_conf] = 0
gpgpu_stall_shd_mem[gl_mem][coal_stall] = 1421455
gpgpu_stall_shd_mem[gl_mem][data_port_stall] = 0
gpgpu_stall_shd_mem[g_mem_ld][mshr_rc] = 0
gpgpu_stall_shd_mem[g_mem_ld][icnt_rc] = 41
gpgpu_stall_shd_mem[g_mem_ld][wb_icnt_rc] = 0
gpgpu_stall_shd_mem[g_mem_ld][wb_rsrv_fail] = 0
gpgpu_stall_shd_mem[g_mem_st][mshr_rc] = 0
gpgpu_stall_shd_mem[g_mem_st][icnt_rc] = 0
gpgpu_stall_shd_mem[g_mem_st][wb_icnt_rc] = 0
gpgpu_stall_shd_mem[g_mem_st][wb_rsrv_fail] = 0
gpgpu_stall_shd_mem[l_mem_ld][mshr_rc] = 0
gpgpu_stall_shd_mem[l_mem_ld][icnt_rc] = 0
gpgpu_stall_shd_mem[l_mem_ld][wb_icnt_rc] = 0
gpgpu_stall_shd_mem[l_mem_ld][wb_rsrv_fail] = 0
gpgpu_stall_shd_mem[l_mem_st][mshr_rc] = 0
gpgpu_stall_shd_mem[l_mem_st][icnt_rc] = 0
gpgpu_stall_shd_mem[l_mem_ld][wb_icnt_rc] = 0
gpgpu_stall_shd_mem[l_mem_ld][wb_rsrv_fail] = 0
gpu_reg_bank_conflict_stalls = 0
Warp Occupancy Distribution:
Stall:16732	W0_Idle:1249843	W0_Scoreboard:40022460	W1:0	W2:0	W3:0	W4:0	W5:0	W6:0	W7:0	W8:0	W9:0	W10:0	W11:0	W12:0	W13:0	W14:0	W15:0	W16:11121	W17:0	W18:0	W19:0	W20:0	W21:0	W22:0	W23:0	W24:0	W25:0	W26:0	W27:0	W28:0	W29:0	W30:0	W31:0	W32:412277
traffic_breakdown_coretomem[CONST_ACC_R] = 80 {8:10,}
traffic_breakdown_coretomem[GLOBAL_ACC_R] = 12792608 {8:1599076,}
traffic_breakdown_coretomem[GLOBAL_ACC_W] = 12249600 {72:2400,136:88800,}
traffic_breakdown_coretomem[INST_ACC_R] = 440 {8:55,}
traffic_breakdown_memtocore[CONST_ACC_R] = 720 {72:10,}
traffic_breakdown_memtocore[GLOBAL_ACC_R] = 67560608 {40:1531200,72:45602,136:22274,}
traffic_breakdown_memtocore[GLOBAL_ACC_W] = 729600 {8:91200,}
traffic_breakdown_memtocore[INST_ACC_R] = 7480 {136:55,}
maxmrqlatency = 24 
maxdqlatency = 0 
maxmflatency = 795219 
averagemflatency = 1061 
max_icnt2mem_latency = 794957 
max_icnt2sh_latency = 4764842 
mrq_lat_table:85503 	343 	192 	262 	45 	0 	0 	0 	0 	0 	0 	0 	0 	0 	0 	0 	0 	0 	0 	0 	0 	0 	0 	0 	0 	0 	0 	0 	0 	0 	0 	0 	
dq_lat_table:0 	0 	0 	0 	0 	0 	0 	0 	0 	0 	0 	0 	0 	0 	0 	0 	0 	0 	0 	0 	0 	0 	0 	0 	0 	0 	0 	0 	0 	0 	0 	0 	
mf_lat_table:0 	0 	0 	0 	0 	0 	0 	1370855 	312896 	841 	136 	518 	61 	472 	265 	245 	485 	845 	1889 	778 	0 	0 	0 	0 	0 	0 	0 	0 	0 	0 	0 	0 	
icnt2mem_lat_table:0 	0 	1112765 	457076 	52564 	850 	60782 	552 	20 	48 	130 	514 	276 	257 	265 	245 	485 	845 	1889 	778 	0 	0 	0 	0 	
icnt2sh_lat_table:0 	0 	267104 	173173 	294424 	347264 	421035 	96041 	45 	0 	0 	0 	0 	0 	0 	0 	0 	0 	0 	0 	19487 	51049 	20664 	0 	
mf_lat_pw_table:0 	0 	0 	0 	0 	0 	0 	3336 	68 	34 	26 	22 	13 	18 	11 	15 	23 	36 	75 	15 	0 	0 	0 	0 	0 	0 	0 	0 	0 	0 	0 	0 	
maximum concurrent accesses to same row:
dram[0]:        16        16        16        16        16        16        16        16        16        16        16        16        16        16        16        16 
dram[1]:        16        16        16        16        16        16        16        16        16        16        16        16        16        16        16        16 
dram[2]:        16        16        16        16        16        16        16        16        16        16        16        16        16        16        16        16 
dram[3]:        16        16        16        16        16        16        16        16        16        16        16        16        16        16        16        16 
dram[4]:        16        16        16        16        16        16        16        16        16        16        16        16        16        16        16        16 
dram[5]:        16        16        16        16        16        16        16        16        16        16        16        16        16        16        16        16 
dram[6]:        16        16        16        16        16        16        16        16        16        16        16        16        16        16        16        16 
dram[7]:        16        16        16        16        16        16        16        16        16        16        16        16        16        16        16        16 
dram[8]:        16        16        16        16        16        16        16        16        16        16        16        16        16        16        16        16 
dram[9]:        16        16        16        16        16        16        16        16        16        16        16        16        16        16        16        16 
dram[10]:        16        16        16        16        16        16        16        16        16        16        16        16        16        16        16        16 
maximum service time to same row:
dram[0]:    342474    331151    397646    331764    379617    377781    350106    372985    378050    350806    385519    380662    379536    368636    332841    379536 
dram[1]:    375533    370252    333319    382104    367748    333408    377782    367804    378306    371777    355182    397061    375819    332900    368923    332896 
[...]
F:  1101091----T:  1108413 	 St: c0190000 Sz: 53248 	 Sm: 0 	 T: memcpy_h2d(4.943957)
F:  1108413----T:  1111499 	 St: c019d000 Sz: 12288 	 Sm: 0 	 T: memcpy_h2d(2.083727)
F:  1111499----T:  1114104 	 St: c01a0000 Sz: 4096 	 Sm: 0 	 T: memcpy_h2d(1.758947)
F:  1114104----T:  1122344 	 St: c01a1000 Sz: 61440 	 Sm: 0 	 T: memcpy_h2d(5.563808)
F:  1122344----T:  1131046 	 St: c0180000 Sz: 65536 	 Sm: 0 	 T: memcpy_h2d(5.875760)
F:  1131046----T:  1133651 	 St: c01b0000 Sz: 4096 	 Sm: 0 	 T: memcpy_h2d(1.758947)
F:  1133651----T:  1141891 	 St: c01b1000 Sz: 61440 	 Sm: 0 	 T: memcpy_h2d(5.563808)
F:  1141891----T:  1144496 	 St: c01c0000 Sz: 4096 	 Sm: 0 	 T: memcpy_h2d(1.758947)
F:  1144496----T:  1175219 	 St: c01c1000 Sz: 258048 	 Sm: 0 	 T: memcpy_h2d(20.744766)
F:  1175219----T:  1182084 	 St: c0040000 Sz: 49152 	 Sm: 0 	 T: memcpy_h2d(4.635382)
F:  1182084----T:  1185514 	 St: c004c000 Sz: 16384 	 Sm: 0 	 T: memcpy_h2d(2.316003)
F:  1185514----T:  1216707 	 St: c0000000 Sz: 262144 	 Sm: 0 	 T: memcpy_h2d(21.062120)
F:  1216707----T:  1321790 	 St: c0050000 Sz: 905216 	 Sm: 0 	 T: memcpy_h2d(70.954086)
F:  1321790----T:  1361920 	 St: c012d000 Sz: 339968 	 Sm: 0 	 T: memcpy_h2d(27.096556)
F:  1335442----T:  1344144 	 St: c0600000 Sz: 65536 	 Sm: 0 	 T: write_back(5.875760)
F:  1344144----T:  1586224 	 St: c0200000 Sz: 2097152 	 Sm: 0 	 T: write_back(163.457123)
F:  1361920----T:  1369700 	 St: c0430000 Sz: 57344 	 Sm: 0 	 T: memcpy_h2d(5.253207)
F:  1369700----T:  1372500 	 St: c043e000 Sz: 8192 	 Sm: 0 	 T: memcpy_h2d(1.890614)
F:  1372500----T:  1375930 	 St: c04d0000 Sz: 16384 	 Sm: 0 	 T: memcpy_h2d(2.316003)
F:  1375930----T:  1382795 	 St: c04d4000 Sz: 49152 	 Sm: 0 	 T: memcpy_h2d(4.635382)
F:  1382795----T:  1387014 	 St: c0460000 Sz: 24576 	 Sm: 0 	 T: memcpy_h2d(2.848751)
F:  1387014----T:  1392975 	 St: c0466000 Sz: 40960 	 Sm: 0 	 T: memcpy_h2d(4.024983)
F:  1392975----T:  1395580 	 St: c0470000 Sz: 4096 	 Sm: 0 	 T: memcpy_h2d(1.758947)
F:  1395580----T:  1403820 	 St: c0471000 Sz: 61440 	 Sm: 0 	 T: memcpy_h2d(5.563808)
F:  1403820----T:  1406425 	 St: c04e0000 Sz: 4096 	 Sm: 0 	 T: memcpy_h2d(1.758947)
F:  1406425----T:  1414665 	 St: c04e1000 Sz: 61440 	 Sm: 0 	 T: memcpy_h2d(5.563808)
F:  1414665----T:  1417465 	 St: c0480000 Sz: 8192 	 Sm: 0 	 T: memcpy_h2d(1.890614)
F:  1417465----T:  1425245 	 St: c0482000 Sz: 57344 	 Sm: 0 	 T: memcpy_h2d(5.253207)
F:  1425245----T:  1448917 	 St: c0400000 Sz: 196608 	 Sm: 0 	 T: memcpy_h2d(15.983795)
F:  1448917----T:  1465080 	 St: c0440000 Sz: 131072 	 Sm: 0 	 T: memcpy_h2d(10.913572)
F:  1465080----T:  1496273 	 St: c0490000 Sz: 262144 	 Sm: 0 	 T: memcpy_h2d(21.062120)
F:  1496273----T:  1498878 	 St: c04f0000 Sz: 4096 	 Sm: 0 	 T: memcpy_h2d(1.758947)
F:  1498878----T:  1507118 	 St: c04f1000 Sz: 61440 	 Sm: 0 	 T: memcpy_h2d(5.563808)
F:  1507118----T:  1523750 	 St: c0500000 Sz: 135168 	 Sm: 0 	 T: memcpy_h2d(11.230249)
F:  1523750----T:  1629775 	 St: c0521000 Sz: 913408 	 Sm: 0 	 T: memcpy_h2d(71.590141)
F:  1629775----T:  1632380 	 St: c0600000 Sz: 4096 	 Sm: 0 	 T: memcpy_h2d(1.758947)
F:  1632380----T:  1640620 	 St: c0601000 Sz: 61440 	 Sm: 0 	 T: memcpy_h2d(5.563808)
F:  1632670----T:  1874750 	 St: c0400000 Sz: 2097152 	 Sm: 0 	 T: write_back(163.457123)
F:  1640620----T:  1644432 	 St: c03f0000 Sz: 20480 	 Sm: 0 	 T: memcpy_h2d(2.573936)
F:  1644432----T:  1650844 	 St: c03f5000 Sz: 45056 	 Sm: 0 	 T: memcpy_h2d(4.329507)
F:  1650844----T:  1654274 	 St: c0230000 Sz: 16384 	 Sm: 0 	 T: memcpy_h2d(2.316003)
F:  1654274----T:  1661139 	 St: c0234000 Sz: 49152 	 Sm: 0 	 T: memcpy_h2d(4.635382)
F:  1661139----T:  1664569 	 St: c02a0000 Sz: 16384 	 Sm: 0 	 T: memcpy_h2d(2.316003)
F:  1664569----T:  1671434 	 St: c02a4000 Sz: 49152 	 Sm: 0 	 T: memcpy_h2d(4.635382)
F:  1671434----T:  1677846 	 St: c03a0000 Sz: 45056 	 Sm: 0 	 T: memcpy_h2d(4.329507)
F:  1677846----T:  1681658 	 St: c03ab000 Sz: 20480 	 Sm: 0 	 T: memcpy_h2d(2.573936)
F:  1681658----T:  1684458 	 St: c03b0000 Sz: 8192 	 Sm: 0 	 T: memcpy_h2d(1.890614)
F:  1684458----T:  1692238 	 St: c03b2000 Sz: 57344 	 Sm: 0 	 T: memcpy_h2d(5.253207)
F:  1692238----T:  1694843 	 St: c0240000 Sz: 4096 	 Sm: 0 	 T: memcpy_h2d(1.758947)
F:  1694843----T:  1703083 	 St: c0241000 Sz: 61440 	 Sm: 0 	 T: memcpy_h2d(5.563808)
F:  1703083----T:  1705688 	 St: c02b0000 Sz: 4096 	 Sm: 0 	 T: memcpy_h2d(1.758947)
F:  1705688----T:  1713928 	 St: c02b1000 Sz: 61440 	 Sm: 0 	 T: memcpy_h2d(5.563808)
F:  1713928----T:  1716533 	 St: c03c0000 Sz: 4096 	 Sm: 0 	 T: memcpy_h2d(1.758947)
F:  1716533----T:  1724773 	 St: c03c1000 Sz: 61440 	 Sm: 0 	 T: memcpy_h2d(5.563808)
F:  1724773----T:  1727378 	 St: c0250000 Sz: 4096 	 Sm: 0 	 T: memcpy_h2d(1.758947)
F:  1727378----T:  1735618 	 St: c0251000 Sz: 61440 	 Sm: 0 	 T: memcpy_h2d(5.563808)
F:  1735618----T:  1738223 	 St: c02c0000 Sz: 4096 	 Sm: 0 	 T: memcpy_h2d(1.758947)
F:  1738223----T:  1746463 	 St: c02c1000 Sz: 61440 	 Sm: 0 	 T: memcpy_h2d(5.563808)
F:  1746463----T:  1754243 	 St: c0200000 Sz: 57344 	 Sm: 0 	 T: memcpy_h2d(5.253207)
F:  1754243----T:  1757043 	 St: c020e000 Sz: 8192 	 Sm: 0 	 T: memcpy_h2d(1.890614)
F:  1757043----T:  1763004 	 St: c0330000 Sz: 40960 	 Sm: 0 	 T: memcpy_h2d(4.024983)
F:  1763004----T:  1767223 	 St: c033a000 Sz: 24576 	 Sm: 0 	 T: memcpy_h2d(2.848751)
F:  1767223----T:  1770023 	 St: c0210000 Sz: 8192 	 Sm: 0 	 T: memcpy_h2d(1.890614)
F:  1770023----T:  1785249 	 St: c0212000 Sz: 122880 	 Sm: 0 	 T: memcpy_h2d(10.280891)
F:  1785249----T:  1816442 	 St: c0260000 Sz: 262144 	 Sm: 0 	 T: memcpy_h2d(21.062120)
F:  1816442----T:  1862689 	 St: c02d0000 Sz: 393216 	 Sm: 0 	 T: memcpy_h2d(31.226873)
F:  1862689----T:  1896234 	 St: c0340000 Sz: 282624 	 Sm: 0 	 T: memcpy_h2d(22.650236)
F:  1874751----T:  1883453 	 St: c0600000 Sz: 65536 	 Sm: 0 	 T: write_back(5.875760)
F:  1883453----T:  2125533 	 St: c0000000 Sz: 2097152 	 Sm: 0 	 T: write_back(163.457123)
F:  1896234----T:  1910056 	 St: c0385000 Sz: 110592 	 Sm: 0 	 T: memcpy_h2d(9.332883)
F:  1910056----T:  1926219 	 St: c03d0000 Sz: 131072 	 Sm: 0 	 T: memcpy_h2d(10.913572)
F:  1926219----T:  1930860 	 St: c0460000 Sz: 28672 	 Sm: 0 	 T: memcpy_h2d(3.133693)
F:  1930860----T:  1936375 	 St: c0467000 Sz: 36864 	 Sm: 0 	 T: memcpy_h2d(3.723835)
F:  1936375----T:  1939461 	 St: c0520000 Sz: 12288 	 Sm: 0 	 T: memcpy_h2d(2.083727)
F:  1939461----T:  1946783 	 St: c0523000 Sz: 53248 	 Sm: 0 	 T: memcpy_h2d(4.943957)
F:  1946783----T:  1949388 	 St: c0470000 Sz: 4096 	 Sm: 0 	 T: memcpy_h2d(1.758947)
F:  1949388----T:  1957628 	 St: c0471000 Sz: 61440 	 Sm: 0 	 T: memcpy_h2d(5.563808)
F:  1957628----T:  1960233 	 St: c0530000 Sz: 4096 	 Sm: 0 	 T: memcpy_h2d(1.758947)
F:  1960233----T:  1968473 	 St: c0531000 Sz: 61440 	 Sm: 0 	 T: memcpy_h2d(5.563808)
F:  1968473----T:  1971273 	 St: c0480000 Sz: 8192 	 Sm: 0 	 T: memcpy_h2d(1.890614)
F:  1971273----T:  1979053 	 St: c0482000 Sz: 57344 	 Sm: 0 	 T: memcpy_h2d(5.253207)
F:  1979053----T:  1981658 	 St: c0540000 Sz: 4096 	 Sm: 0 	 T: memcpy_h2d(1.758947)
F:  1981658----T:  1989898 	 St: c0541000 Sz: 61440 	 Sm: 0 	 T: memcpy_h2d(5.563808)
F:  1989898----T:  1996763 	 St: c0560000 Sz: 49152 	 Sm: 0 	 T: memcpy_h2d(4.635382)
F:  1996763----T:  2000193 	 St: c056c000 Sz: 16384 	 Sm: 0 	 T: memcpy_h2d(2.316003)
F:  2000193----T:  2008895 	 St: c0430000 Sz: 65536 	 Sm: 0 	 T: memcpy_h2d(5.875760)
F:  2008895----T:  2032567 	 St: c0400000 Sz: 196608 	 Sm: 0 	 T: memcpy_h2d(15.983795)
F:  2032567----T:  2035172 	 St: c0440000 Sz: 4096 	 Sm: 0 	 T: memcpy_h2d(1.758947)
F:  2035172----T:  2050867 	 St: c0441000 Sz: 126976 	 Sm: 0 	 T: memcpy_h2d(10.597569)
F:  2050867----T:  2119704 	 St: c0490000 Sz: 589824 	 Sm: 0 	 T: memcpy_h2d(46.480080)
F:  2119704----T:  2128406 	 St: c0550000 Sz: 65536 	 Sm: 0 	 T: memcpy_h2d(5.875760)
F:  2128406----T:  2197243 	 St: c0570000 Sz: 589824 	 Sm: 0 	 T: memcpy_h2d(46.480080)
F:  2197243----T:  2199848 	 St: c0600000 Sz: 4096 	 Sm: 0 	 T: memcpy_h2d(1.758947)
F:  2199848----T:  2208088 	 St: c0601000 Sz: 61440 	 Sm: 0 	 T: memcpy_h2d(5.563808)
F:  2200160----T:  2442240 	 St: c0200000 Sz: 2097152 	 Sm: 0 	 T: write_back(163.457123)
F:  2208088----T:  2210888 	 St: c00e0000 Sz: 8192 	 Sm: 0 	 T: memcpy_h2d(1.890614)
F:  2210888----T:  2218668 	 St: c00e2000 Sz: 57344 	 Sm: 0 	 T: memcpy_h2d(5.253207)
F:  2218668----T:  2224183 	 St: c01e0000 Sz: 36864 	 Sm: 0 	 T: memcpy_h2d(3.723835)
F:  2224183----T:  2228824 	 St: c01e9000 Sz: 28672 	 Sm: 0 	 T: memcpy_h2d(3.133693)
F:  2228824----T:  2231429 	 St: c01f0000 Sz: 4096 	 Sm: 0 	 T: memcpy_h2d(1.758947)
F:  2231429----T:  2239669 	 St: c01f1000 Sz: 61440 	 Sm: 0 	 T: memcpy_h2d(5.563808)
F:  2239669----T:  2242274 	 St: c00f0000 Sz: 4096 	 Sm: 0 	 T: memcpy_h2d(1.758947)
F:  2242274----T:  2250514 	 St: c00f1000 Sz: 61440 	 Sm: 0 	 T: memcpy_h2d(5.563808)
F:  2250514----T:  2253119 	 St: c0100000 Sz: 4096 	 Sm: 0 	 T: memcpy_h2d(1.758947)
F:  2253119----T:  2261359 	 St: c0101000 Sz: 61440 	 Sm: 0 	 T: memcpy_h2d(5.563808)
F:  2261359----T:  2264445 	 St: c0150000 Sz: 12288 	 Sm: 0 	 T: memcpy_h2d(2.083727)
F:  2264445----T:  2271767 	 St: c0153000 Sz: 53248 	 Sm: 0 	 T: memcpy_h2d(4.943957)
F:  2271767----T:  2276408 	 St: c0090000 Sz: 28672 	 Sm: 0 	 T: memcpy_h2d(3.133693)
F:  2276408----T:  2281923 	 St: c0097000 Sz: 36864 	 Sm: 0 	 T: memcpy_h2d(3.723835)
F:  2281923----T:  2284723 	 St: c00a0000 Sz: 8192 	 Sm: 0 	 T: memcpy_h2d(1.890614)
F:  2284723----T:  2292503 	 St: c00a2000 Sz: 57344 	 Sm: 0 	 T: memcpy_h2d(5.253207)
F:  2292503----T:  2295108 	 St: c0160000 Sz: 4096 	 Sm: 0 	 T: memcpy_h2d(1.758947)
F:  2295108----T:  2303348 	 St: c0161000 Sz: 61440 	 Sm: 0 	 T: memcpy_h2d(5.563808)
F:  2303348----T:  2312050 	 St: c0080000 Sz: 65536 	 Sm: 0 	 T: memcpy_h2d(5.875760)
F:  2312050----T:  2314655 	 St: c00b0000 Sz: 4096 	 Sm: 0 	 T: memcpy_h2d(1.758947)
F:  2314655----T:  2337858 	 St: c00b1000 Sz: 192512 	 Sm: 0 	 T: memcpy_h2d(15.667117)
F:  2337858----T:  2399165 	 St: c0000000 Sz: 524288 	 Sm: 0 	 T: memcpy_h2d(41.395679)
F:  2399165----T:  2430358 	 St: c0110000 Sz: 262144 	 Sm: 0 	 T: memcpy_h2d(21.062120)
F:  2430358----T:  2432963 	 St: c0170000 Sz: 4096 	 Sm: 0 	 T: memcpy_h2d(1.758947)
F:  2432963----T:  2486269 	 St: c0171000 Sz: 454656 	 Sm: 0 	 T: memcpy_h2d(35.993248)
F:  2442241----T:  2684321 	 St: c0400000 Sz: 2097152 	 Sm: 0 	 T: write_back(163.457123)
F:  2486269----T:  2493591 	 St: c0340000 Sz: 53248 	 Sm: 0 	 T: memcpy_h2d(4.943957)
F:  2493591----T:  2496677 	 St: c034d000 Sz: 12288 	 Sm: 0 	 T: memcpy_h2d(2.083727)
F:  2496677----T:  2499477 	 St: c0350000 Sz: 8192 	 Sm: 0 	 T: memcpy_h2d(1.890614)
F:  2499477----T:  2507257 	 St: c0352000 Sz: 57344 	 Sm: 0 	 T: memcpy_h2d(5.253207)
F:  2507257----T:  2515497 	 St: c02e0000 Sz: 61440 	 Sm: 0 	 T: memcpy_h2d(5.563808)
F:  2515497----T:  2518102 	 St: c02ef000 Sz: 4096 	 Sm: 0 	 T: memcpy_h2d(1.758947)
F:  2518102----T:  2520707 	 St: c02f0000 Sz: 4096 	 Sm: 0 	 T: memcpy_h2d(1.758947)
F:  2520707----T:  2528947 	 St: c02f1000 Sz: 61440 	 Sm: 0 	 T: memcpy_h2d(5.563808)
F:  2528947----T:  2531552 	 St: c0300000 Sz: 4096 	 Sm: 0 	 T: memcpy_h2d(1.758947)
F:  2531552----T:  2539792 	 St: c0301000 Sz: 61440 	 Sm: 0 	 T: memcpy_h2d(5.563808)
F:  2539792----T:  2543222 	 St: c0230000 Sz: 16384 	 Sm: 0 	 T: memcpy_h2d(2.316003)
F:  2543222----T:  2550087 	 St: c0234000 Sz: 49152 	 Sm: 0 	 T: memcpy_h2d(4.635382)
F:  2550087----T:  2552692 	 St: c0310000 Sz: 4096 	 Sm: 0 	 T: memcpy_h2d(1.758947)
F:  2552692----T:  2560932 	 St: c0311000 Sz: 61440 	 Sm: 0 	 T: memcpy_h2d(5.563808)
F:  2560932----T:  2563537 	 St: c0240000 Sz: 4096 	 Sm: 0 	 T: memcpy_h2d(1.758947)
F:  2563537----T:  2571777 	 St: c0241000 Sz: 61440 	 Sm: 0 	 T: memcpy_h2d(5.563808)
F:  2571777----T:  2574382 	 St: c0320000 Sz: 4096 	 Sm: 0 	 T: memcpy_h2d(1.758947)
F:  2574382----T:  2590077 	 St: c0321000 Sz: 126976 	 Sm: 0 	 T: memcpy_h2d(10.597569)
F:  2590077----T:  2606240 	 St: c0360000 Sz: 131072 	 Sm: 0 	 T: memcpy_h2d(10.913572)
F:  2606240----T:  2608845 	 St: c0250000 Sz: 4096 	 Sm: 0 	 T: memcpy_h2d(1.758947)
F:  2608845----T:  2617085 	 St: c0251000 Sz: 61440 	 Sm: 0 	 T: memcpy_h2d(5.563808)
F:  2617085----T:  2640757 	 St: c0200000 Sz: 196608 	 Sm: 0 	 T: memcpy_h2d(15.983795)
F:  2640757----T:  2702064 	 St: c0260000 Sz: 524288 	 Sm: 0 	 T: memcpy_h2d(41.395679)
F:  2684322----T:  2693024 	 St: c0600000 Sz: 65536 	 Sm: 0 	 T: write_back(5.875760)
F:  2693024----T:  2935104 	 St: c0000000 Sz: 2097152 	 Sm: 0 	 T: write_back(163.457123)
F:  2702064----T:  2705876 	 St: c0380000 Sz: 20480 	 Sm: 0 	 T: memcpy_h2d(2.573936)
F:  2705876----T:  2764829 	 St: c0385000 Sz: 503808 	 Sm: 0 	 T: memcpy_h2d(39.806213)
F:  2764829----T:  2767629 	 St: c0520000 Sz: 8192 	 Sm: 0 	 T: memcpy_h2d(1.890614)
F:  2767629----T:  2775409 	 St: c0522000 Sz: 57344 	 Sm: 0 	 T: memcpy_h2d(5.253207)
F:  2775409----T:  2781821 	 St: c0410000 Sz: 45056 	 Sm: 0 	 T: memcpy_h2d(4.329507)
F:  2781821----T:  2785633 	 St: c041b000 Sz: 20480 	 Sm: 0 	 T: memcpy_h2d(2.573936)
F:  2785633----T:  2788238 	 St: c0420000 Sz: 4096 	 Sm: 0 	 T: memcpy_h2d(1.758947)
F:  2788238----T:  2796478 	 St: c0421000 Sz: 61440 	 Sm: 0 	 T: memcpy_h2d(5.563808)
F:  2796478----T:  2799083 	 St: c0530000 Sz: 4096 	 Sm: 0 	 T: memcpy_h2d(1.758947)
F:  2799083----T:  2807323 	 St: c0531000 Sz: 61440 	 Sm: 0 	 T: memcpy_h2d(5.563808)
F:  2807323----T:  2816025 	 St: c0400000 Sz: 65536 	 Sm: 0 	 T: memcpy_h2d(5.875760)
F:  2816025----T:  2818825 	 St: c0430000 Sz: 8192 	 Sm: 0 	 T: memcpy_h2d(1.890614)
F:  2818825----T:  2826605 	 St: c0432000 Sz: 57344 	 Sm: 0 	 T: memcpy_h2d(5.253207)
F:  2826605----T:  2829210 	 St: c0540000 Sz: 4096 	 Sm: 0 	 T: memcpy_h2d(1.758947)
F:  2829210----T:  2837450 	 St: c0541000 Sz: 61440 	 Sm: 0 	 T: memcpy_h2d(5.563808)
F:  2837450----T:  2840055 	 St: c0550000 Sz: 4096 	 Sm: 0 	 T: memcpy_h2d(1.758947)
F:  2840055----T:  2848295 	 St: c0551000 Sz: 61440 	 Sm: 0 	 T: memcpy_h2d(5.563808)
F:  2848295----T:  2864458 	 St: c0500000 Sz: 131072 	 Sm: 0 	 T: memcpy_h2d(10.913572)
F:  2864458----T:  2867063 	 St: c0560000 Sz: 4096 	 Sm: 0 	 T: memcpy_h2d(1.758947)
F:  2867063----T:  2882758 	 St: c0561000 Sz: 126976 	 Sm: 0 	 T: memcpy_h2d(10.597569)
F:  2882758----T:  2887399 	 St: c04d0000 Sz: 28672 	 Sm: 0 	 T: memcpy_h2d(3.133693)
F:  2887399----T:  2892914 	 St: c04d7000 Sz: 36864 	 Sm: 0 	 T: memcpy_h2d(3.723835)
F:  2892914----T:  2895519 	 St: c04e0000 Sz: 4096 	 Sm: 0 	 T: memcpy_h2d(1.758947)
F:  2895519----T:  2903759 	 St: c04e1000 Sz: 61440 	 Sm: 0 	 T: memcpy_h2d(5.563808)
F:  2903759----T:  2912461 	 St: c04c0000 Sz: 65536 	 Sm: 0 	 T: memcpy_h2d(5.875760)
F:  2912461----T:  2915066 	 St: c04f0000 Sz: 4096 	 Sm: 0 	 T: memcpy_h2d(1.758947)
F:  2915066----T:  2923306 	 St: c04f1000 Sz: 61440 	 Sm: 0 	 T: memcpy_h2d(5.563808)
F:  2923306----T:  2960143 	 St: c0440000 Sz: 311296 	 Sm: 0 	 T: memcpy_h2d(24.873058)
F:  2960143----T:  2985695 	 St: c048c000 Sz: 212992 	 Sm: 0 	 T: memcpy_h2d(17.253208)
F:  2985695----T:  3047002 	 St: c0580000 Sz: 524288 	 Sm: 0 	 T: memcpy_h2d(41.395679)
F:  3047002----T:  3049802 	 St: c0600000 Sz: 8192 	 Sm: 0 	 T: memcpy_h2d(1.890614)
F:  3049802----T:  3057582 	 St: c0602000 Sz: 57344 	 Sm: 0 	 T: memcpy_h2d(5.253207)
F:  3057582----T:  3063097 	 St: c01e0000 Sz: 36864 	 Sm: 0 	 T: memcpy_h2d(3.723835)
F:  3063097----T:  3067738 	 St: c01e9000 Sz: 28672 	 Sm: 0 	 T: memcpy_h2d(3.133693)
F:  3067738----T:  3070343 	 St: c01f0000 Sz: 4096 	 Sm: 0 	 T: memcpy_h2d(1.758947)
F:  3070343----T:  3078583 	 St: c01f1000 Sz: 61440 	 Sm: 0 	 T: memcpy_h2d(5.563808)
F:  3594647----T:  4764843 	 	 	 Kl: 2 	 Sm: 0 	 T: kernel_launch(790.139099)
F:  3595343----T:  3597948 	 St: c0610000 Sz: 4096 	 Sm: 0 	 T: memcpy_h2d(1.758947)
F:  3597948----T:  3606188 	 St: c0611000 Sz: 61440 	 Sm: 0 	 T: memcpy_h2d(5.563808)
F:  3606188----T:  3608793 	 St: c0000000 Sz: 4096 	 Sm: 0 	 T: memcpy_h2d(1.758947)
F:  3608793----T:  3617033 	 St: c0001000 Sz: 61440 	 Sm: 0 	 T: memcpy_h2d(5.563808)
F:  3620662----T:  3623267 	 St: c0010000 Sz: 4096 	 Sm: 0 	 T: memcpy_h2d(1.758947)
F:  3623267----T:  3631507 	 St: c0011000 Sz: 61440 	 Sm: 0 	 T: memcpy_h2d(5.563808)
F:  3634869----T:  3637474 	 St: c0020000 Sz: 4096 	 Sm: 0 	 T: memcpy_h2d(1.758947)
F:  3637474----T:  3653169 	 St: c0021000 Sz: 126976 	 Sm: 0 	 T: memcpy_h2d(10.597569)
F:  3659876----T:  3662481 	 St: c0040000 Sz: 4096 	 Sm: 0 	 T: memcpy_h2d(1.758947)
F:  3662481----T:  3693204 	 St: c0041000 Sz: 258048 	 Sm: 0 	 T: memcpy_h2d(20.744766)
F:  3707103----T:  3709708 	 St: c0080000 Sz: 4096 	 Sm: 0 	 T: memcpy_h2d(1.758947)
F:  3707103----T:  3715805 	 St: c0600000 Sz: 65536 	 Sm: 0 	 T: write_back(5.875760)
F:  3715805----T:  3882088 	 St: c0081000 Sz: 1437696 	 Sm: 0 	 T: memcpy_h2d(112.277512)
F:  3715805----T:  3957885 	 St: c0200000 Sz: 2097152 	 Sm: 0 	 T: write_back(163.457123)
F:  3979137----T:  3981937 	 St: c0200000 Sz: 8192 	 Sm: 0 	 T: memcpy_h2d(1.890614)
F:  3981937----T:  3989717 	 St: c0202000 Sz: 57344 	 Sm: 0 	 T: memcpy_h2d(5.253207)
F:  3992821----T:  3995426 	 St: c0210000 Sz: 4096 	 Sm: 0 	 T: memcpy_h2d(1.758947)
F:  3995426----T:  4003666 	 St: c0211000 Sz: 61440 	 Sm: 0 	 T: memcpy_h2d(5.563808)
F:  4007164----T:  4009769 	 St: c0220000 Sz: 4096 	 Sm: 0 	 T: memcpy_h2d(1.758947)
F:  4009769----T:  4025464 	 St: c0221000 Sz: 126976 	 Sm: 0 	 T: memcpy_h2d(10.597569)
F:  4033519----T:  4036124 	 St: c0240000 Sz: 4096 	 Sm: 0 	 T: memcpy_h2d(1.758947)
F:  4036124----T:  4066847 	 St: c0241000 Sz: 258048 	 Sm: 0 	 T: memcpy_h2d(20.744766)
F:  4082935----T:  4085735 	 St: c0280000 Sz: 8192 	 Sm: 0 	 T: memcpy_h2d(1.890614)
F:  4082935----T:  4325015 	 St: c0400000 Sz: 2097152 	 Sm: 0 	 T: write_back(163.457123)
F:  4085735----T:  4146100 	 St: c0282000 Sz: 516096 	 Sm: 0 	 T: memcpy_h2d(40.759621)
F:  4183591----T:  4186196 	 St: c0300000 Sz: 4096 	 Sm: 0 	 T: memcpy_h2d(1.758947)
F:  4186196----T:  4307285 	 St: c0301000 Sz: 1044480 	 Sm: 0 	 T: memcpy_h2d(81.761650)
F:  4387197----T:  4389802 	 St: c0400000 Sz: 4096 	 Sm: 0 	 T: memcpy_h2d(1.758947)
F:  4389802----T:  4398042 	 St: c0401000 Sz: 61440 	 Sm: 0 	 T: memcpy_h2d(5.563808)
F:  4402552----T:  4405157 	 St: c0410000 Sz: 4096 	 Sm: 0 	 T: memcpy_h2d(1.758947)
F:  4405157----T:  4413397 	 St: c0411000 Sz: 61440 	 Sm: 0 	 T: memcpy_h2d(5.563808)
F:  4417790----T:  4420395 	 St: c0420000 Sz: 4096 	 Sm: 0 	 T: memcpy_h2d(1.758947)
F:  4420395----T:  4436090 	 St: c0421000 Sz: 126976 	 Sm: 0 	 T: memcpy_h2d(10.597569)
F:  4445565----T:  4448170 	 St: c0440000 Sz: 4096 	 Sm: 0 	 T: memcpy_h2d(1.758947)
F:  4448170----T:  4478893 	 St: c0441000 Sz: 258048 	 Sm: 0 	 T: memcpy_h2d(20.744766)
F:  4498397----T:  4501002 	 St: c0480000 Sz: 4096 	 Sm: 0 	 T: memcpy_h2d(1.758947)
F:  4498397----T:  4740477 	 St: c0000000 Sz: 2097152 	 Sm: 0 	 T: write_back(163.457123)
F:  4501002----T:  4561838 	 St: c0481000 Sz: 520192 	 Sm: 0 	 T: memcpy_h2d(41.077652)
F:  4601661----T:  4604266 	 St: c0500000 Sz: 4096 	 Sm: 0 	 T: memcpy_h2d(1.758947)
F:  4604266----T:  4725355 	 St: c0501000 Sz: 1044480 	 Sm: 0 	 T: memcpy_h2d(81.761650)
F:  4764843----T:  4767448 	 St: 0 Sz: 4096 	 Sm: 0 	 T: device_sync(1.758947)
F:  4764843----T:  4767929 	 St: 0 Sz: 12288 	 Sm: 0 	 T: device_sync(2.083727)
Tot_prefetch_time: 0(cycle), 0.000000(us)
Tot_kernel_exec_time: 4320543(cycle), 2917.314697(us)
Tot_kernel_exec_time_and_fault_time: 13117683(cycle), 8857.314453(us)
Tot_memcpy_h2d_time: 3629197(cycle), 2450.504395(us)
Tot_memcpy_d2h_time: 0(cycle), 0.000000(us)
Tot_memcpy_time: 3629197(cycle), 2450.504395(us)
Tot_devicesync_time: 5691(cycle), 3.842674(us)
Tot_writeback_time: 2715092(cycle), 1833.282959(us)
Tot_dma_time: 0(cycle), 0.000000(us)
Tot_memcpy_d2h_sync_wb_time: 2720783(cycle), 1837.125610(us)
GPGPU-Sim: *** exit detected ***
