

        *** GPGPU-Sim Simulator Version 3.2.2  [build gpgpu-sim_git-commit-32a5e88e7f0bd0281e1f3b1056e517909662bd85_modified_0] ***


GPGPU-Sim PTX: simulation mode 0 (can change with PTX_SIM_MODE_FUNC environment variable:
               1=functional simulation only, 0=detailed performance simulator)
GPGPU-Sim: Configuration options:

-network_mode                           1 # Interconnection network mode
-inter_config_file   config_fermi_islip.icnt # Interconnection network config file
-gpgpu_ptx_use_cuobjdump                    1 # Use cuobjdump to extract ptx and sass from binaries
-gpgpu_experimental_lib_support                    0 # Try to extract code from cuda libraries [Broken because of unknown cudaGetExportTable]
-gpgpu_ptx_convert_to_ptxplus                    0 # Convert SASS (native ISA) to ptxplus and run ptxplus
-gpgpu_ptx_force_max_capability                   20 # Force maximum compute capability
-gpgpu_ptx_inst_debug_to_file                    0 # Dump executed instructions' debug information to file
-gpgpu_ptx_inst_debug_file       inst_debug.txt # Executed instructions' debug output file
-gpgpu_ptx_inst_debug_thread_uid                    1 # Thread UID for executed instructions' debug output
-gpgpu_simd_model                       1 # 1 = post-dominator
-gpgpu_shader_core_pipeline              2048:32 # shader core pipeline config, i.e., {<nthread>:<warpsize>}
-gpgpu_tex_cache:l1  16:128:24,L:R:m:N:L,F:128:4,128:2 # per-shader L1 texture cache  (READ-ONLY) config  {<nsets>:<bsize>:<assoc>,<rep>:<wr>:<alloc>:<wr_alloc>,<mshr>:<N>:<merge>,<mq>:<rf>}
-gpgpu_const_cache:l1 128:64:2,L:R:f:N:L,A:2:64,4 # per-shader L1 constant memory cache  (READ-ONLY) config  {<nsets>:<bsize>:<assoc>,<rep>:<wr>:<alloc>:<wr_alloc>,<mshr>:<N>:<merge>,<mq>} 
-gpgpu_cache:il1     8:128:4,L:R:f:N:L,A:2:48,4 # shader L1 instruction cache config  {<nsets>:<bsize>:<assoc>,<rep>:<wr>:<alloc>:<wr_alloc>,<mshr>:<N>:<merge>,<mq>} 
-gpgpu_cache:dl1     64:128:6,L:L:m:N:H,A:128:8,8 # per-shader L1 data cache config  {<nsets>:<bsize>:<assoc>,<rep>:<wr>:<alloc>:<wr_alloc>,<mshr>:<N>:<merge>,<mq> | none}
-gpgpu_cache:dl1PrefL1                 none # per-shader L1 data cache config  {<nsets>:<bsize>:<assoc>,<rep>:<wr>:<alloc>:<wr_alloc>,<mshr>:<N>:<merge>,<mq> | none}
-gpgpu_cache:dl1PrefShared                 none # per-shader L1 data cache config  {<nsets>:<bsize>:<assoc>,<rep>:<wr>:<alloc>:<wr_alloc>,<mshr>:<N>:<merge>,<mq> | none}
-gmem_skip_L1D                          1 # global memory access skip L1D cache (implements -Xptxas -dlcm=cg, default=no skip)
-gpgpu_perfect_mem                      0 # enable perfect memory mode (no cache miss)
-n_regfile_gating_group                    4 # group of lanes that should be read/written together)
-gpgpu_clock_gated_reg_file                    0 # enable clock gated reg file for power calculations
-gpgpu_clock_gated_lanes                    0 # enable clock gated lanes for power calculations
-gpgpu_shader_registers                65536 # Number of registers per shader core. Limits number of concurrent CTAs. (default 8192)
-gpgpu_shader_cta                      32 # Maximum number of concurrent CTAs in shader (default 8)
-gpgpu_num_cta_barriers                   16 # Maximum number of named barriers per CTA (default 16)
-gpgpu_n_clusters                      28 # number of processing clusters
-gpgpu_n_cores_per_cluster                    1 # number of simd cores per cluster
-gpgpu_n_cluster_ejection_buffer_size                    8 # number of packets in ejection buffer
-gpgpu_n_ldst_response_buffer_size                    2 # number of response packets in ld/st unit ejection buffer
-gpgpu_shmem_size                   16384 # Size of shared memory per shader core (default 16kB)
-gpgpu_shmem_size                   98304 # Size of shared memory per shader core (default 16kB)
-gpgpu_shmem_size_PrefL1                16384 # Size of shared memory per shader core (default 16kB)
-gpgpu_shmem_size_PrefShared                16384 # Size of shared memory per shader core (default 16kB)
-gpgpu_shmem_num_banks                   32 # Number of banks in the shared memory in each shader core (default 16)
-gpgpu_shmem_limited_broadcast                    0 # Limit shared memory to do one broadcast per cycle (default on)
-gpgpu_shmem_warp_parts                    1 # Number of portions a warp is divided into for shared memory bank conflict check 
-gpgpu_warpdistro_shader                   -1 # Specify which shader core to collect the warp size distribution from
-gpgpu_warp_issue_shader                    0 # Specify which shader core to collect the warp issue distribution from
-gpgpu_local_mem_map                    1 # Mapping from local memory space address to simulated GPU physical address space (default = enabled)
-gpgpu_num_reg_banks                   32 # Number of register banks (default = 8)
-gpgpu_reg_bank_use_warp_id                    0 # Use warp ID in mapping registers to banks (default = off)
-gpgpu_operand_collector_num_units_sp                   20 # number of collector units (default = 4)
-gpgpu_operand_collector_num_units_sfu                    4 # number of collector units (default = 4)
-gpgpu_operand_collector_num_units_mem                    8 # number of collector units (default = 2)
-gpgpu_operand_collector_num_units_gen                    0 # number of collector units (default = 0)
-gpgpu_operand_collector_num_in_ports_sp                    4 # number of collector unit in ports (default = 1)
-gpgpu_operand_collector_num_in_ports_sfu                    1 # number of collector unit in ports (default = 1)
-gpgpu_operand_collector_num_in_ports_mem                    1 # number of collector unit in ports (default = 1)
-gpgpu_operand_collector_num_in_ports_gen                    0 # number of collector unit in ports (default = 0)
-gpgpu_operand_collector_num_out_ports_sp                    4 # number of collector unit in ports (default = 1)
-gpgpu_operand_collector_num_out_ports_sfu                    1 # number of collector unit in ports (default = 1)
-gpgpu_operand_collector_num_out_ports_mem                    1 # number of collector unit in ports (default = 1)
-gpgpu_operand_collector_num_out_ports_gen                    0 # number of collector unit in ports (default = 0)
-gpgpu_coalesce_arch                   13 # Coalescing arch (default = 13, anything else is off for now)
-gpgpu_num_sched_per_core                    2 # Number of warp schedulers per core
-gpgpu_max_insn_issue_per_warp                    2 # Max number of instructions that can be issued per warp in one cycle by scheduler
-gpgpu_simt_core_sim_order                    1 # Select the simulation order of cores in a cluster (0=Fix, 1=Round-Robin)
-gpgpu_pipeline_widths        4,1,1,4,1,1,6 # Pipeline widths ID_OC_SP,ID_OC_SFU,ID_OC_MEM,OC_EX_SP,OC_EX_SFU,OC_EX_MEM,EX_WB
-gpgpu_num_sp_units                     4 # Number of SP units (default=1)
-gpgpu_num_sfu_units                    1 # Number of SF units (default=1)
-gpgpu_num_mem_units                    1 # Number if ldst units (default=1) WARNING: not hooked up to anything
-gpgpu_scheduler                      gto # Scheduler configuration: < lrr | gto | two_level_active > If two_level_active:<num_active_warps>:<inner_prioritization>:<outer_prioritization>For complete list of prioritization values see shader.h enum scheduler_prioritization_typeDefault: gto
-gpgpu_concurrent_kernel_sm                    0 # Support concurrent kernels on a SM (default = disabled)
-tlb_size                            4096 # Number of tlb entries per SM.
-gpgpu_dram_scheduler                    1 # 0 = fifo, 1 = FR-FCFS (defaul)
-gpgpu_dram_partition_queues              8:8:8:8 # i2$:$2d:d2$:$2i
-l2_ideal                               0 # Use a ideal L2 cache that always hit
-gpgpu_cache:dl2     64:128:16,L:B:m:W:L,A:1024:1024,4:0,32 # unified banked L2 data cache config  {<nsets>:<bsize>:<assoc>,<rep>:<wr>:<alloc>:<wr_alloc>,<mshr>:<N>:<merge>,<mq>}
-gpgpu_cache:dl2_texture_only                    0 # L2 cache used for texture only
-gpgpu_n_mem                           11 # number of memory modules (e.g. memory controllers) in gpu
-gpgpu_n_sub_partition_per_mchannel                    2 # number of memory subpartition in each memory module
-gpgpu_n_mem_per_ctrlr                    1 # number of memory chips per memory controller
-gpgpu_memlatency_stat                   14 # track and display latency statistics 0x2 enables MC, 0x4 enables queue logs
-gpgpu_frfcfs_dram_sched_queue_size                   64 # 0 = unlimited (default); # entries per chip
-gpgpu_dram_return_queue_size                  116 # 0 = unlimited (default); # entries per chip
-gpgpu_dram_buswidth                    4 # default = 4 bytes (8 bytes per cycle at DDR)
-gpgpu_dram_burst_length                    8 # Burst length of each DRAM request (default = 4 data bus cycle)
-dram_data_command_freq_ratio                    4 # Frequency ratio between DRAM data bus and command bus (default = 2 times, i.e. DDR)
-gpgpu_dram_timing_opt nbk=16:CCD=2:RRD=6:RCD=12:RAS=28:RP=12:RC=40: CL=12:WL=4:CDLR=5:WR=12:nbkgrp=1:CCDL=0:RTPL=0 # DRAM timing parameters = {nbk:tCCD:tRRD:tRCD:tRAS:tRP:tRC:CL:WL:tCDLR:tWR:nbkgrp:tCCDL:tRTPL}
-rop_latency                          120 # ROP queue latency (default 85)
-dram_latency                         100 # DRAM latency (default 30)
-gpgpu_mem_addr_mapping dramid@8;00000000.00000000.00000000.00000000.0000RRRR.RRRRRRRR.RBBBCCCC.BCCSSSSS # mapping memory address to dram model {dramid@<start bit>;<memory address map>}
-gpgpu_mem_addr_test                    0 # run sweep test to check address mapping for aliased address
-gpgpu_mem_address_mask                    1 # 0 = old addressing mask, 1 = new addressing mask, 2 = new add. mask + flipped bank sel and chip sel bits
-gpuwattch_xml_file  gpuwattch_geforcegtx1080ti.xml # GPUWattch XML file
-power_simulation_enabled                    1 # Turn on power simulator (1=On, 0=Off)
-power_per_cycle_dump                    0 # Dump detailed power output each cycle
-power_trace_enabled                    0 # produce a file for the power trace (1=On, 0=Off)
-power_trace_zlevel                     6 # Compression level of the power trace output log (0=no comp, 9=highest)
-steady_power_levels_enabled                    0 # produce a file for the steady power levels (1=On, 0=Off)
-steady_state_definition                  8:4 # allowed deviation:number of samples
-gpgpu_max_cycle                        0 # terminates gpu simulation early (0 = no limit)
-gpgpu_max_insn                         0 # terminates gpu simulation early (0 = no limit)
-gpgpu_max_cta                          0 # terminates gpu simulation early (0 = no limit)
-gpgpu_runtime_stat                   500 # display runtime statistics such as dram utilization {<freq>:<flag>}
-liveness_message_freq                    1 # Minimum number of seconds between simulation liveness messages (0 = always print)
-gpgpu_flush_l1_cache                    0 # Flush L1 cache at the end of each kernel call
-gpgpu_flush_l2_cache                    0 # Flush L2 cache at the end of each kernel call
-gpgpu_deadlock_detect                    0 # Stop the simulation at deadlock (1=on (default), 0=off)
-gpgpu_ptx_instruction_classification                    0 # if enabled will classify ptx instruction types per kernel (Max 255 kernels now)
-gpgpu_ptx_sim_mode                     0 # Select between Performance (default) or Functional simulation (1)
-gpgpu_clock_domains 1481.0:2962.0:1481.0:2750.0 # Clock Domain Frequencies in MhZ {<Core Clock>:<ICNT Clock>:<L2 Clock>:<DRAM Clock>}
-gpgpu_max_concurrent_kernel                    8 # maximum kernels that can run concurrently on GPU
-gpgpu_cflog_interval                    0 # Interval between each snapshot in control flow logger
-visualizer_enabled                     0 # Turn on visualizer output (1=On, 0=Off)
-visualizer_outputfile                 NULL # Specifies the output log file for visualizer
-visualizer_zlevel                      6 # Compression level of the visualizer output log (0=no comp, 9=highest)
-trace_enabled                          0 # Turn on traces
-trace_components                    none # comma seperated list of traces to enable. Complete list found in trace_streams.tup. Default none
-trace_sampling_core                    0 # The core which is printed using CORE_DPRINTF. Default 0
-trace_sampling_memory_partition                   -1 # The memory partition which is printed using MEMPART_DPRINTF. Default -1 (i.e. all)
-gddr_size                           10MB # Size of GDDR in MB/GB.(GLOBAL_HEAP_START, GLOBAL_HEAP_START + gddr_size) would be used for unmanged memory, (GLOBAL_HEAP_START + gddr_size, GLOBAL_HEAP_START + gddr_size*2) would be used for managed memory. 
-page_table_walk_latency                  100 # Average page table walk latency (in core cycle).
-eviction_policy                        0 # Select page eviction policy
-invalidate_clean                       0 # Should directly invalidate clean pages
-reserve_accessed_page_percent                    0 # Percentage of accessed pages reserved from eviction in hope that they will be accessed in next iteration.
-percentage_of_free_page_buffer                    0 # Percentage of free page buffer to trigger the page eviction.
-page_size                            4KB # GDDR page size, only 4KB/2MB avaliable.
-pcie_bandwidth                  16.0GB/s # PCI-e bandwidth per direction, in GB/s.
-enable_dma                             0 # Enable direct access to CPU memory
-multiply_dma_penalty                    2 # Oversubscription Multiplicative Penalty Factor for Adaptive DMA
-migrate_threshold                      8 # Access counter threshold for migrating the page from cpu to gpu
-sim_prof_enable                        1 # Enable gpgpu-sim profiler
-hardware_prefetch                      1 # Select gpgpu-sim hardware prefetcher
-hwprefetch_oversub                     1 # Select gpgpu-sim hardware prefetcher under over-subscription
-page_fault_latency                 66645 # Average fault latency (in core cycle).
-enable_accurate_simulation                    0 # Enable page fault functional simulation.
-enable_smart_runtime                    0 # Enable access pattern detection, policy engine, and adaptive memory management.
-enable_ptx_file_line_stats                    1 # Turn on PTX source line statistic profiling. (1 = On)
-ptx_line_stats_filename gpgpu_inst_stats.txt # Output file for PTX source line statistics.
-gpgpu_kernel_launch_latency               222150 # Kernel launch latency in cycles. Default: 0
-gpgpu_cdp_enabled                      0 # Turn on CDP
-save_embedded_ptx                      0 # saves ptx files embedded in binary as <n>.ptx
-keep                                   0 # keep intermediate files created by GPGPU-Sim when interfacing with external programs
-gpgpu_ptx_save_converted_ptxplus                    0 # Saved converted ptxplus to a file
-ptx_opcode_latency_int         4,13,4,5,145 # Opcode latencies for integers <ADD,MAX,MUL,MAD,DIV>Default 1,1,19,25,145
-ptx_opcode_latency_fp          4,13,4,5,39 # Opcode latencies for single precision floating points <ADD,MAX,MUL,MAD,DIV>Default 1,1,1,1,30
-ptx_opcode_latency_dp         8,19,8,8,330 # Opcode latencies for double precision floating points <ADD,MAX,MUL,MAD,DIV>Default 8,8,8,8,335
-ptx_opcode_initiation_int            1,2,2,2,8 # Opcode initiation intervals for integers <ADD,MAX,MUL,MAD,DIV>Default 1,1,4,4,32
-ptx_opcode_initiation_fp            1,2,1,1,4 # Opcode initiation intervals for single precision floating points <ADD,MAX,MUL,MAD,DIV>Default 1,1,1,1,5
-ptx_opcode_initiation_dp          1,2,1,1,130 # Opcode initiation intervals for double precision floating points <ADD,MAX,MUL,MAD,DIV>Default 8,8,8,8,130
-cdp_latency         7200,8000,100,12000,1600 # CDP API latency <cudaStreamCreateWithFlags, cudaGetParameterBufferV2_init_perWarp, cudaGetParameterBufferV2_perKernel, cudaLaunchDeviceV2_init_perWarp, cudaLaunchDevicV2_perKernel>Default 7200,8000,100,12000,1600
DRAM Timing Options:
nbk                                    16 # number of banks
CCD                                     2 # column to column delay
RRD                                     6 # minimal delay between activation of rows in different banks
RCD                                    12 # row to column delay
RAS                                    28 # time needed to activate row
RP                                     12 # time needed to precharge (deactivate) row
RC                                     40 # row cycle time
CDLR                                    5 # switching from write to read (changes tWTR)
WR                                     12 # last data-in to row precharge
CL                                     12 # CAS latency
WL                                      4 # Write latency
nbkgrp                                  1 # number of bank groups
CCDL                                    0 # column to column delay between accesses to different bank groups
RTPL                                    0 # read to precharge delay between accesses to different bank groups
Total number of memory sub partition = 22
addr_dec_mask[CHIP]  = 0000000000000000 	high:64 low:0
addr_dec_mask[BK]    = 0000000000007080 	high:15 low:7
addr_dec_mask[ROW]   = 000000000fff8000 	high:28 low:15
addr_dec_mask[COL]   = 0000000000000f7f 	high:12 low:0
addr_dec_mask[BURST] = 000000000000001f 	high:5 low:0
sub_partition_id_mask = 0000000000000080
GPGPU-Sim uArch: clock freqs: 1481000000.000000:2962000000.000000:1481000000.000000:2750000000.000000
GPGPU-Sim uArch: clock periods: 0.00000000067521944632:0.00000000033760972316:0.00000000067521944632:0.00000000036363636364
*** Initializing Memory Statistics ***
GPGPU-Sim uArch: interconnect node map (shaderID+MemID to icntID)
GPGPU-Sim uArch: Memory nodes ID start from index: 28
GPGPU-Sim uArch:    0   1   2   3   4   5   6
GPGPU-Sim uArch:    7   8   9  10  11  12  13
GPGPU-Sim uArch:   14  15  16  17  18  19  20
GPGPU-Sim uArch:   21  22  23  24  25  26  27
GPGPU-Sim uArch:   28  29  30  31  32  33  34
GPGPU-Sim uArch:   35  36  37  38  39  40  41
GPGPU-Sim uArch:   42  43  44  45  46  47  48
GPGPU-Sim uArch:   49
GPGPU-Sim uArch: interconnect node reverse map (icntID to shaderID+MemID)
GPGPU-Sim uArch: Memory nodes start from ID: 28
GPGPU-Sim uArch:    0   1   2   3   4   5   6
GPGPU-Sim uArch:    7   8   9  10  11  12  13
GPGPU-Sim uArch:   14  15  16  17  18  19  20
GPGPU-Sim uArch:   21  22  23  24  25  26  27
GPGPU-Sim uArch:   28  29  30  31  32  33  34
GPGPU-Sim uArch:   35  36  37  38  39  40  41
GPGPU-Sim uArch:   42  43  44  45  46  47  48
GPGPU-Sim uArch:   49
0f84533fd9462dbe0b302acec6fb7358  /root/gpgpu-sim_UVMSmart/benchmarks/Managed/StreamTriad/stream_triad
GPGPU-Sim uArch: performance model initialization complete.
GPGPU-Sim PTX: __cudaRegisterFatBinary, fat_cubin_handle = 1, filename=default
self exe links to: /root/gpgpu-sim_UVMSmart/benchmarks/Managed/StreamTriad/stream_triad
Running md5sum using "md5sum /root/gpgpu-sim_UVMSmart/benchmarks/Managed/StreamTriad/stream_triad "
Parsing file _cuobjdump_complete_output_eglVXa
######### cuobjdump parser ########
## Adding new section ELF
Adding arch: sm_20
Adding identifier: default
## Adding new section ELF
Adding arch: sm_20
Adding identifier: default
## Adding new section PTX
Adding ptx filename: _cuobjdump_1.ptx
Adding arch: sm_20
Adding identifier: default
Done parsing!!!
GPGPU-Sim PTX: __cudaRegisterFunction _Z12stream_triadiiPfS_S_ : hostFun 0x0x4010b9, fat_cubin_handle = 1
GPGPU-Sim PTX: instruction assembly for function '_Z12stream_triadiiPfS_S_'...   done.
GPGPU-Sim PTX: finding reconvergence points for '_Z12stream_triadiiPfS_S_'...
GPGPU-Sim PTX: Finding dominators for '_Z12stream_triadiiPfS_S_'...
GPGPU-Sim PTX: Finding immediate dominators for '_Z12stream_triadiiPfS_S_'...
GPGPU-Sim PTX: Finding postdominators for '_Z12stream_triadiiPfS_S_'...
GPGPU-Sim PTX: Finding immediate postdominators for '_Z12stream_triadiiPfS_S_'...
GPGPU-Sim PTX: pre-decoding instructions for '_Z12stream_triadiiPfS_S_'...
GPGPU-Sim PTX: reconvergence points for _Z12stream_triadiiPfS_S_...
GPGPU-Sim PTX:  1 (potential) branch divergence @  PC=0x050 (_1.ptx:38) @%p1 bra BB0_3;
GPGPU-Sim PTX:    immediate post dominator      @  PC=0x0e0 (_1.ptx:61) ret;
GPGPU-Sim PTX:  2 (potential) branch divergence @  PC=0x0d8 (_1.ptx:58) @%p2 bra BB0_2;
GPGPU-Sim PTX:    immediate post dominator      @  PC=0x0e0 (_1.ptx:61) ret;
GPGPU-Sim PTX: ... end of reconvergence points for _Z12stream_triadiiPfS_S_
GPGPU-Sim PTX: ... done pre-decoding instructions for '_Z12stream_triadiiPfS_S_'.
GPGPU-Sim PTX: finished parsing EMBEDDED .ptx file _1.ptx
Adding _cuobjdump_1.ptx with cubin handle 1
GPGPU-Sim PTX: extracting embedded .ptx to temporary file "_ptx_rWMfW6"
Running: cat _ptx_rWMfW6 | sed 's/.version 1.5/.version 1.4/' | sed 's/, texmode_independent//' | sed 's/\(\.extern \.const\[1\] .b8 \w\+\)\[\]/\1\[1\]/' | sed 's/const\[.\]/const\[0\]/g' > _ptx2_67aBU2
GPGPU-Sim PTX: generating ptxinfo using "$CUDA_INSTALL_PATH/bin/ptxas --gpu-name=sm_20 -v _ptx2_67aBU2 --output-file  /dev/null 2> _ptx_rWMfW6info"
GPGPU-Sim PTX: Kernel '_Z12stream_triadiiPfS_S_' : regs=13, lmem=0, smem=0, cmem=64
GPGPU-Sim PTX: removing ptxinfo using "rm -f _ptx_rWMfW6 _ptx2_67aBU2 _ptx_rWMfW6info"
GPGPU-Sim PTX: loading globals with explicit initializers... 
GPGPU-Sim PTX: finished loading globals (0 bytes total).
GPGPU-Sim PTX: loading constants with explicit initializers...  done.

GPGPU-Sim PTX: cudaLaunch for 0x0x4010b9 (mode=performance simulation) on stream 0
GPGPU-Sim PTX: pushing kernel '_Z12stream_triadiiPfS_S_' to stream 0, gridDim= (4096,1,1) blockDim = (256,1,1) 
GPGPU-Sim uArch: Shader 1 bind to kernel 1 '_Z12stream_triadiiPfS_S_'
GPGPU-Sim uArch: CTA/core = 8, limited by: threads
GPGPU-Sim uArch: Shader 2 bind to kernel 1 '_Z12stream_triadiiPfS_S_'
GPGPU-Sim uArch: Shader 3 bind to kernel 1 '_Z12stream_triadiiPfS_S_'
GPGPU-Sim uArch: Shader 4 bind to kernel 1 '_Z12stream_triadiiPfS_S_'
GPGPU-Sim uArch: Shader 5 bind to kernel 1 '_Z12stream_triadiiPfS_S_'
GPGPU-Sim uArch: Shader 6 bind to kernel 1 '_Z12stream_triadiiPfS_S_'
GPGPU-Sim uArch: Shader 7 bind to kernel 1 '_Z12stream_triadiiPfS_S_'
GPGPU-Sim uArch: Shader 8 bind to kernel 1 '_Z12stream_triadiiPfS_S_'
GPGPU-Sim uArch: Shader 9 bind to kernel 1 '_Z12stream_triadiiPfS_S_'
GPGPU-Sim uArch: Shader 10 bind to kernel 1 '_Z12stream_triadiiPfS_S_'
GPGPU-Sim uArch: Shader 11 bind to kernel 1 '_Z12stream_triadiiPfS_S_'
GPGPU-Sim uArch: Shader 12 bind to kernel 1 '_Z12stream_triadiiPfS_S_'
GPGPU-Sim uArch: Shader 13 bind to kernel 1 '_Z12stream_triadiiPfS_S_'
GPGPU-Sim uArch: Shader 14 bind to kernel 1 '_Z12stream_triadiiPfS_S_'
GPGPU-Sim uArch: Shader 15 bind to kernel 1 '_Z12stream_triadiiPfS_S_'
GPGPU-Sim uArch: Shader 16 bind to kernel 1 '_Z12stream_triadiiPfS_S_'
GPGPU-Sim uArch: Shader 17 bind to kernel 1 '_Z12stream_triadiiPfS_S_'
GPGPU-Sim uArch: Shader 18 bind to kernel 1 '_Z12stream_triadiiPfS_S_'
GPGPU-Sim uArch: Shader 19 bind to kernel 1 '_Z12stream_triadiiPfS_S_'
GPGPU-Sim uArch: Shader 20 bind to kernel 1 '_Z12stream_triadiiPfS_S_'
GPGPU-Sim uArch: Shader 21 bind to kernel 1 '_Z12stream_triadiiPfS_S_'
GPGPU-Sim uArch: Shader 22 bind to kernel 1 '_Z12stream_triadiiPfS_S_'
GPGPU-Sim uArch: Shader 23 bind to kernel 1 '_Z12stream_triadiiPfS_S_'
GPGPU-Sim uArch: Shader 24 bind to kernel 1 '_Z12stream_triadiiPfS_S_'
GPGPU-Sim uArch: Shader 25 bind to kernel 1 '_Z12stream_triadiiPfS_S_'
GPGPU-Sim uArch: Shader 26 bind to kernel 1 '_Z12stream_triadiiPfS_S_'
GPGPU-Sim uArch: Shader 27 bind to kernel 1 '_Z12stream_triadiiPfS_S_'
GPGPU-Sim uArch: Shader 0 bind to kernel 1 '_Z12stream_triadiiPfS_S_'
GPGPU-Sim uArch: Shader 25 bind to kernel 1 '_Z12stream_triadiiPfS_S_'
GPGPU-Sim uArch: Shader 26 bind to kernel 1 '_Z12stream_triadiiPfS_S_'
GPGPU-Sim uArch: Shader 0 bind to kernel 1 '_Z12stream_triadiiPfS_S_'
GPGPU-Sim uArch: Shader 2 bind to kernel 1 '_Z12stream_triadiiPfS_S_'
GPGPU-Sim uArch: Shader 4 bind to kernel 1 '_Z12stream_triadiiPfS_S_'
GPGPU-Sim uArch: Shader 7 bind to kernel 1 '_Z12stream_triadiiPfS_S_'
GPGPU-Sim uArch: Shader 10 bind to kernel 1 '_Z12stream_triadiiPfS_S_'
GPGPU-Sim uArch: Shader 11 bind to kernel 1 '_Z12stream_triadiiPfS_S_'
GPGPU-Sim uArch: Shader 13 bind to kernel 1 '_Z12stream_triadiiPfS_S_'
GPGPU-Sim uArch: Shader 16 bind to kernel 1 '_Z12stream_triadiiPfS_S_'
GPGPU-Sim uArch: Shader 3 bind to kernel 1 '_Z12stream_triadiiPfS_S_'
GPGPU-Sim uArch: Shader 4 bind to kernel 1 '_Z12stream_triadiiPfS_S_'
GPGPU-Sim uArch: Shader 7 bind to kernel 1 '_Z12stream_triadiiPfS_S_'
GPGPU-Sim uArch: Shader 8 bind to kernel 1 '_Z12stream_triadiiPfS_S_'
GPGPU-Sim uArch: Shader 10 bind to kernel 1 '_Z12stream_triadiiPfS_S_'
GPGPU-Sim uArch: Shader 11 bind to kernel 1 '_Z12stream_triadiiPfS_S_'
GPGPU-Sim uArch: Shader 12 bind to kernel 1 '_Z12stream_triadiiPfS_S_'
GPGPU-Sim uArch: Shader 13 bind to kernel 1 '_Z12stream_triadiiPfS_S_'
GPGPU-Sim uArch: Shader 14 bind to kernel 1 '_Z12stream_triadiiPfS_S_'
GPGPU-Sim uArch: Shader 15 bind to kernel 1 '_Z12stream_triadiiPfS_S_'
GPGPU-Sim uArch: Shader 16 bind to kernel 1 '_Z12stream_triadiiPfS_S_'
GPGPU-Sim uArch: Shader 17 bind to kernel 1 '_Z12stream_triadiiPfS_S_'
GPGPU-Sim uArch: Shader 20 bind to kernel 1 '_Z12stream_triadiiPfS_S_'
GPGPU-Sim uArch: Shader 21 bind to kernel 1 '_Z12stream_triadiiPfS_S_'
GPGPU-Sim uArch: Shader 22 bind to kernel 1 '_Z12stream_triadiiPfS_S_'
GPGPU-Sim uArch: Shader 23 bind to kernel 1 '_Z12stream_triadiiPfS_S_'
GPGPU-Sim uArch: Shader 25 bind to kernel 1 '_Z12stream_triadiiPfS_S_'
GPGPU-Sim uArch: Shader 26 bind to kernel 1 '_Z12stream_triadiiPfS_S_'
GPGPU-Sim uArch: Shader 27 bind to kernel 1 '_Z12stream_triadiiPfS_S_'
GPGPU-Sim uArch: Shader 1 bind to kernel 1 '_Z12stream_triadiiPfS_S_'
GPGPU-Sim uArch: Shader 13 bind to kernel 1 '_Z12stream_triadiiPfS_S_'
GPGPU-Sim uArch: Shader 14 bind to kernel 1 '_Z12stream_triadiiPfS_S_'
GPGPU-Sim uArch: Shader 15 bind to kernel 1 '_Z12stream_triadiiPfS_S_'
GPGPU-Sim uArch: Shader 16 bind to kernel 1 '_Z12stream_triadiiPfS_S_'
GPGPU-Sim uArch: Shader 17 bind to kernel 1 '_Z12stream_triadiiPfS_S_'
GPGPU-Sim uArch: Shader 18 bind to kernel 1 '_Z12stream_triadiiPfS_S_'
GPGPU-Sim uArch: Shader 19 bind to kernel 1 '_Z12stream_triadiiPfS_S_'
GPGPU-Sim uArch: Shader 20 bind to kernel 1 '_Z12stream_triadiiPfS_S_'
GPGPU-Sim uArch: Shader 21 bind to kernel 1 '_Z12stream_triadiiPfS_S_'
GPGPU-Sim uArch: Shader 22 bind to kernel 1 '_Z12stream_triadiiPfS_S_'
GPGPU-Sim uArch: Shader 23 bind to kernel 1 '_Z12stream_triadiiPfS_S_'
GPGPU-Sim uArch: Shader 24 bind to kernel 1 '_Z12stream_triadiiPfS_S_'
GPGPU-Sim uArch: Shader 25 bind to kernel 1 '_Z12stream_triadiiPfS_S_'
GPGPU-Sim uArch: Shader 26 bind to kernel 1 '_Z12stream_triadiiPfS_S_'
GPGPU-Sim uArch: Shader 27 bind to kernel 1 '_Z12stream_triadiiPfS_S_'
GPGPU-Sim uArch: Shader 1 bind to kernel 1 '_Z12stream_triadiiPfS_S_'
GPGPU-Sim uArch: Shader 2 bind to kernel 1 '_Z12stream_triadiiPfS_S_'
GPGPU-Sim uArch: Shader 3 bind to kernel 1 '_Z12stream_triadiiPfS_S_'
GPGPU-Sim uArch: Shader 4 bind to kernel 1 '_Z12stream_triadiiPfS_S_'
GPGPU-Sim uArch: Shader 5 bind to kernel 1 '_Z12stream_triadiiPfS_S_'
GPGPU-Sim uArch: Shader 6 bind to kernel 1 '_Z12stream_triadiiPfS_S_'
GPGPU-Sim uArch: Shader 7 bind to kernel 1 '_Z12stream_triadiiPfS_S_'
GPGPU-Sim uArch: Shader 8 bind to kernel 1 '_Z12stream_triadiiPfS_S_'
GPGPU-Sim uArch: Shader 9 bind to kernel 1 '_Z12stream_triadiiPfS_S_'
GPGPU-Sim uArch: Shader 10 bind to kernel 1 '_Z12stream_triadiiPfS_S_'
GPGPU-Sim uArch: Shader 11 bind to kernel 1 '_Z12stream_triadiiPfS_S_'
GPGPU-Sim uArch: Shader 25 bind to kernel 1 '_Z12stream_triadiiPfS_S_'
GPGPU-Sim uArch: Shader 26 bind to kernel 1 '_Z12stream_triadiiPfS_S_'
GPGPU-Sim uArch: Shader 2 bind to kernel 1 '_Z12stream_triadiiPfS_S_'
GPGPU-Sim uArch: Shader 6 bind to kernel 1 '_Z12stream_triadiiPfS_S_'
GPGPU-Sim uArch: Shader 12 bind to kernel 1 '_Z12stream_triadiiPfS_S_'
GPGPU-Sim uArch: Shader 14 bind to kernel 1 '_Z12stream_triadiiPfS_S_'
GPGPU-Sim uArch: Shader 15 bind to kernel 1 '_Z12stream_triadiiPfS_S_'
GPGPU-Sim uArch: Shader 16 bind to kernel 1 '_Z12stream_triadiiPfS_S_'
GPGPU-Sim uArch: Shader 17 bind to kernel 1 '_Z12stream_triadiiPfS_S_'
GPGPU-Sim uArch: Shader 18 bind to kernel 1 '_Z12stream_triadiiPfS_S_'
GPGPU-Sim uArch: Shader 19 bind to kernel 1 '_Z12stream_triadiiPfS_S_'
GPGPU-Sim uArch: Shader 23 bind to kernel 1 '_Z12stream_triadiiPfS_S_'
GPGPU-Sim uArch: Shader 0 bind to kernel 1 '_Z12stream_triadiiPfS_S_'
GPGPU-Sim uArch: Shader 1 bind to kernel 1 '_Z12stream_triadiiPfS_S_'
GPGPU-Sim uArch: Shader 2 bind to kernel 1 '_Z12stream_triadiiPfS_S_'
GPGPU-Sim uArch: Shader 5 bind to kernel 1 '_Z12stream_triadiiPfS_S_'
GPGPU-Sim uArch: Shader 6 bind to kernel 1 '_Z12stream_triadiiPfS_S_'
GPGPU-Sim uArch: Shader 8 bind to kernel 1 '_Z12stream_triadiiPfS_S_'
GPGPU-Sim uArch: Shader 9 bind to kernel 1 '_Z12stream_triadiiPfS_S_'
GPGPU-Sim uArch: Shader 12 bind to kernel 1 '_Z12stream_triadiiPfS_S_'
GPGPU-Sim uArch: Shader 13 bind to kernel 1 '_Z12stream_triadiiPfS_S_'
GPGPU-Sim uArch: Shader 15 bind to kernel 1 '_Z12stream_triadiiPfS_S_'
GPGPU-Sim uArch: Shader 17 bind to kernel 1 '_Z12stream_triadiiPfS_S_'
GPGPU-Sim uArch: Shader 20 bind to kernel 1 '_Z12stream_triadiiPfS_S_'
GPGPU-Sim uArch: Shader 22 bind to kernel 1 '_Z12stream_triadiiPfS_S_'
GPGPU-Sim uArch: Shader 24 bind to kernel 1 '_Z12stream_triadiiPfS_S_'
GPGPU-Sim uArch: Shader 25 bind to kernel 1 '_Z12stream_triadiiPfS_S_'
GPGPU-Sim uArch: Shader 26 bind to kernel 1 '_Z12stream_triadiiPfS_S_'
Destroy streams for kernel 1: size 0
kernel_name = _Z12stream_triadiiPfS_S_ 
kernel_launch_uid = 1 
gpu_sim_cycle = 1611714
gpu_sim_insn = 28311552
gpu_ipc =      17.5661
gpu_tot_sim_cycle = 1833864
gpu_tot_sim_insn = 28311552
gpu_tot_ipc =      15.4382
gpu_tot_issued_cta = 4096
max_total_param_size = 0
gpu_stall_dramfull = 356327
gpu_stall_icnt2sh    = 1759
partiton_reqs_in_parallel = 35101381
partiton_reqs_in_parallel_total    = 0
partiton_level_parallism =      21.7789
partiton_level_parallism_total  =      19.1407
partiton_reqs_in_parallel_util = 35101381
partiton_reqs_in_parallel_util_total    = 0
gpu_sim_cycle_parition_util = 1609839
gpu_tot_sim_cycle_parition_util    = 0
partiton_level_parallism_util =      21.8043
partiton_level_parallism_util_total  =      21.8043
partiton_replys_in_parallel = 98388
partiton_replys_in_parallel_total    = 0
L2_BW  =       5.7861 GB/Sec
L2_BW_total  =       5.0852 GB/Sec
gpu_total_sim_rate=17433

========= Core cache stats =========
L1I_cache:
	L1I_total_cache_accesses = 491520
	L1I_total_cache_misses = 1959
	L1I_total_cache_miss_rate = 0.0040
	L1I_total_cache_pending_hits = 0
	L1I_total_cache_reservation_fails = 6846
L1D_cache:
	L1D_cache_core[0]: Access = 0, Miss = 0, Miss_rate = -nan, Pending_hits = 0, Reservation_fails = 0
	L1D_cache_core[1]: Access = 0, Miss = 0, Miss_rate = -nan, Pending_hits = 0, Reservation_fails = 0
	L1D_cache_core[2]: Access = 0, Miss = 0, Miss_rate = -nan, Pending_hits = 0, Reservation_fails = 0
	L1D_cache_core[3]: Access = 0, Miss = 0, Miss_rate = -nan, Pending_hits = 0, Reservation_fails = 0
	L1D_cache_core[4]: Access = 0, Miss = 0, Miss_rate = -nan, Pending_hits = 0, Reservation_fails = 0
	L1D_cache_core[5]: Access = 0, Miss = 0, Miss_rate = -nan, Pending_hits = 0, Reservation_fails = 0
	L1D_cache_core[6]: Access = 0, Miss = 0, Miss_rate = -nan, Pending_hits = 0, Reservation_fails = 0
	L1D_cache_core[7]: Access = 0, Miss = 0, Miss_rate = -nan, Pending_hits = 0, Reservation_fails = 0
	L1D_cache_core[8]: Access = 0, Miss = 0, Miss_rate = -nan, Pending_hits = 0, Reservation_fails = 0
	L1D_cache_core[9]: Access = 0, Miss = 0, Miss_rate = -nan, Pending_hits = 0, Reservation_fails = 0
	L1D_cache_core[10]: Access = 0, Miss = 0, Miss_rate = -nan, Pending_hits = 0, Reservation_fails = 0
	L1D_cache_core[11]: Access = 0, Miss = 0, Miss_rate = -nan, Pending_hits = 0, Reservation_fails = 0
	L1D_cache_core[12]: Access = 0, Miss = 0, Miss_rate = -nan, Pending_hits = 0, Reservation_fails = 0
	L1D_cache_core[13]: Access = 0, Miss = 0, Miss_rate = -nan, Pending_hits = 0, Reservation_fails = 0
	L1D_cache_core[14]: Access = 0, Miss = 0, Miss_rate = -nan, Pending_hits = 0, Reservation_fails = 0
	L1D_cache_core[15]: Access = 0, Miss = 0, Miss_rate = -nan, Pending_hits = 0, Reservation_fails = 0
	L1D_cache_core[16]: Access = 0, Miss = 0, Miss_rate = -nan, Pending_hits = 0, Reservation_fails = 0
	L1D_cache_core[17]: Access = 0, Miss = 0, Miss_rate = -nan, Pending_hits = 0, Reservation_fails = 0
	L1D_cache_core[18]: Access = 0, Miss = 0, Miss_rate = -nan, Pending_hits = 0, Reservation_fails = 0
	L1D_cache_core[19]: Access = 0, Miss = 0, Miss_rate = -nan, Pending_hits = 0, Reservation_fails = 0
	L1D_cache_core[20]: Access = 0, Miss = 0, Miss_rate = -nan, Pending_hits = 0, Reservation_fails = 0
	L1D_cache_core[21]: Access = 0, Miss = 0, Miss_rate = -nan, Pending_hits = 0, Reservation_fails = 0
	L1D_cache_core[22]: Access = 0, Miss = 0, Miss_rate = -nan, Pending_hits = 0, Reservation_fails = 0
	L1D_cache_core[23]: Access = 0, Miss = 0, Miss_rate = -nan, Pending_hits = 0, Reservation_fails = 0
	L1D_cache_core[24]: Access = 0, Miss = 0, Miss_rate = -nan, Pending_hits = 0, Reservation_fails = 0
	L1D_cache_core[25]: Access = 0, Miss = 0, Miss_rate = -nan, Pending_hits = 0, Reservation_fails = 0
	L1D_cache_core[26]: Access = 0, Miss = 0, Miss_rate = -nan, Pending_hits = 0, Reservation_fails = 0
	L1D_cache_core[27]: Access = 0, Miss = 0, Miss_rate = -nan, Pending_hits = 0, Reservation_fails = 0
	L1D_total_cache_accesses = 0
	L1D_total_cache_misses = 0
	L1D_total_cache_pending_hits = 0
	L1D_total_cache_reservation_fails = 0
	L1D_cache_data_port_util = 0.000
	L1D_cache_fill_port_util = 0.000
L1C_cache:
	L1C_total_cache_accesses = 163840
	L1C_total_cache_misses = 1792
	L1C_total_cache_miss_rate = 0.0109
	L1C_total_cache_pending_hits = 0
	L1C_total_cache_reservation_fails = 4886
L1T_cache:
	L1T_total_cache_accesses = 0
	L1T_total_cache_misses = 0
	L1T_total_cache_pending_hits = 0
	L1T_total_cache_reservation_fails = 0

Total_core_cache_stats:
	Total_core_cache_stats_breakdown[GLOBAL_ACC_R][HIT] = 0
	Total_core_cache_stats_breakdown[GLOBAL_ACC_R][HIT_RESERVED] = 0
	Total_core_cache_stats_breakdown[GLOBAL_ACC_R][MISS] = 0
	Total_core_cache_stats_breakdown[GLOBAL_ACC_R][RESERVATION_FAIL] = 0
	Total_core_cache_stats_breakdown[LOCAL_ACC_R][HIT] = 0
	Total_core_cache_stats_breakdown[LOCAL_ACC_R][HIT_RESERVED] = 0
	Total_core_cache_stats_breakdown[LOCAL_ACC_R][MISS] = 0
	Total_core_cache_stats_breakdown[LOCAL_ACC_R][RESERVATION_FAIL] = 0
	Total_core_cache_stats_breakdown[CONST_ACC_R][HIT] = 162048
	Total_core_cache_stats_breakdown[CONST_ACC_R][HIT_RESERVED] = 0
	Total_core_cache_stats_breakdown[CONST_ACC_R][MISS] = 1792
	Total_core_cache_stats_breakdown[CONST_ACC_R][RESERVATION_FAIL] = 4886
	Total_core_cache_stats_breakdown[TEXTURE_ACC_R][HIT] = 0
	Total_core_cache_stats_breakdown[TEXTURE_ACC_R][HIT_RESERVED] = 0
	Total_core_cache_stats_breakdown[TEXTURE_ACC_R][MISS] = 0
	Total_core_cache_stats_breakdown[TEXTURE_ACC_R][RESERVATION_FAIL] = 0
	Total_core_cache_stats_breakdown[GLOBAL_ACC_W][HIT] = 0
	Total_core_cache_stats_breakdown[GLOBAL_ACC_W][HIT_RESERVED] = 0
	Total_core_cache_stats_breakdown[GLOBAL_ACC_W][MISS] = 0
	Total_core_cache_stats_breakdown[GLOBAL_ACC_W][RESERVATION_FAIL] = 0
	Total_core_cache_stats_breakdown[LOCAL_ACC_W][HIT] = 0
	Total_core_cache_stats_breakdown[LOCAL_ACC_W][HIT_RESERVED] = 0
	Total_core_cache_stats_breakdown[LOCAL_ACC_W][MISS] = 0
	Total_core_cache_stats_breakdown[LOCAL_ACC_W][RESERVATION_FAIL] = 0
	Total_core_cache_stats_breakdown[L1_WRBK_ACC][HIT] = 0
	Total_core_cache_stats_breakdown[L1_WRBK_ACC][HIT_RESERVED] = 0
	Total_core_cache_stats_breakdown[L1_WRBK_ACC][MISS] = 0
	Total_core_cache_stats_breakdown[L1_WRBK_ACC][RESERVATION_FAIL] = 0
	Total_core_cache_stats_breakdown[L2_WRBK_ACC][HIT] = 0
	Total_core_cache_stats_breakdown[L2_WRBK_ACC][HIT_RESERVED] = 0
	Total_core_cache_stats_breakdown[L2_WRBK_ACC][MISS] = 0
	Total_core_cache_stats_breakdown[L2_WRBK_ACC][RESERVATION_FAIL] = 0
	Total_core_cache_stats_breakdown[INST_ACC_R][HIT] = 489561
	Total_core_cache_stats_breakdown[INST_ACC_R][HIT_RESERVED] = 0
	Total_core_cache_stats_breakdown[INST_ACC_R][MISS] = 1959
	Total_core_cache_stats_breakdown[INST_ACC_R][RESERVATION_FAIL] = 6846
	Total_core_cache_stats_breakdown[L1_WR_ALLOC_R][HIT] = 0
	Total_core_cache_stats_breakdown[L1_WR_ALLOC_R][HIT_RESERVED] = 0
	Total_core_cache_stats_breakdown[L1_WR_ALLOC_R][MISS] = 0
	Total_core_cache_stats_breakdown[L1_WR_ALLOC_R][RESERVATION_FAIL] = 0
	Total_core_cache_stats_breakdown[L2_WR_ALLOC_R][HIT] = 0
	Total_core_cache_stats_breakdown[L2_WR_ALLOC_R][HIT_RESERVED] = 0
	Total_core_cache_stats_breakdown[L2_WR_ALLOC_R][MISS] = 0
	Total_core_cache_stats_breakdown[L2_WR_ALLOC_R][RESERVATION_FAIL] = 0
	Total_core_cache_stats_breakdown[CONST_ACC_R][TOTAL_ACCESS] = 163840
	Total_core_cache_stats_breakdown[INST_ACC_R][TOTAL_ACCESS] = 491520
Shader 0 warp_id issue ditsribution:
warp_id:
0, 1, 2, 3, 4, 5, 6, 7, 8, 9, 10, 11, 12, 13, 14, 15, 16, 17, 18, 19, 20, 21, 22, 23, 24, 25, 26, 27, 28, 29, 30, 31, 32, 33, 34, 35, 36, 37, 38, 39, 40, 41, 42, 43, 44, 45, 46, 47, 48, 49, 50, 51, 52, 53, 54, 55, 56, 57, 58, 59, 60, 61, 62, 63, 
distro:
754, 752, 755, 754, 755, 755, 755, 755, 719, 718, 719, 718, 719, 719, 719, 719, 647, 648, 647, 648, 647, 648, 647, 648, 647, 648, 647, 648, 647, 648, 647, 648, 648, 647, 648, 646, 648, 647, 647, 648, 574, 575, 574, 575, 576, 576, 576, 576, 612, 608, 612, 609, 611, 610, 610, 612, 612, 611, 612, 612, 612, 612, 612, 611, 
gpgpu_n_tot_thrd_icount = 30408704
gpgpu_n_tot_w_icount = 950272
gpgpu_n_stall_shd_mem = 319284
gpgpu_n_mem_read_local = 0
gpgpu_n_mem_write_local = 0
gpgpu_n_mem_read_global = 65536
gpgpu_n_mem_write_global = 32768
gpgpu_n_mem_texture = 0
gpgpu_n_mem_const = 28
gpgpu_n_load_insn  = 2097152
gpgpu_n_store_insn = 1048576
gpgpu_n_shmem_insn = 0
gpgpu_n_tex_insn = 0
gpgpu_n_const_mem_insn = 0
gpgpu_n_param_mem_insn = 5242880
gpgpu_n_shmem_bkconflict = 0
gpgpu_n_cache_bkconflict = 0
gpgpu_n_intrawarp_mshr_merge = 0
gpgpu_n_cmem_portconflict = 4886
gpgpu_stall_shd_mem[c_mem][bk_conf] = 4886
gpgpu_stall_shd_mem[c_mem][mshr_rc] = 0
gpgpu_stall_shd_mem[c_mem][icnt_rc] = 0
gpgpu_stall_shd_mem[c_mem][data_port_stall] = 0
gpgpu_stall_shd_mem[t_mem][mshr_rc] = 0
gpgpu_stall_shd_mem[t_mem][icnt_rc] = 0
gpgpu_stall_shd_mem[t_mem][data_port_stall] = 0
gpgpu_stall_shd_mem[s_mem][bk_conf] = 0
gpgpu_stall_shd_mem[gl_mem][bk_conf] = 0
gpgpu_stall_shd_mem[gl_mem][coal_stall] = 180189
gpgpu_stall_shd_mem[gl_mem][data_port_stall] = 0
gpgpu_stall_shd_mem[g_mem_ld][mshr_rc] = 0
gpgpu_stall_shd_mem[g_mem_ld][icnt_rc] = 134209
gpgpu_stall_shd_mem[g_mem_ld][wb_icnt_rc] = 0
gpgpu_stall_shd_mem[g_mem_ld][wb_rsrv_fail] = 0
gpgpu_stall_shd_mem[g_mem_st][mshr_rc] = 0
gpgpu_stall_shd_mem[g_mem_st][icnt_rc] = 0
gpgpu_stall_shd_mem[g_mem_st][wb_icnt_rc] = 0
gpgpu_stall_shd_mem[g_mem_st][wb_rsrv_fail] = 0
gpgpu_stall_shd_mem[l_mem_ld][mshr_rc] = 0
gpgpu_stall_shd_mem[l_mem_ld][icnt_rc] = 0
gpgpu_stall_shd_mem[l_mem_ld][wb_icnt_rc] = 0
gpgpu_stall_shd_mem[l_mem_ld][wb_rsrv_fail] = 0
gpgpu_stall_shd_mem[l_mem_st][mshr_rc] = 0
gpgpu_stall_shd_mem[l_mem_st][icnt_rc] = 0
gpgpu_stall_shd_mem[l_mem_ld][wb_icnt_rc] = 0
gpgpu_stall_shd_mem[l_mem_ld][wb_rsrv_fail] = 0
gpu_reg_bank_conflict_stalls = 0
Warp Occupancy Distribution:
Stall:151229	W0_Idle:51681558	W0_Scoreboard:37690629	W1:0	W2:0	W3:0	W4:0	W5:0	W6:0	W7:0	W8:0	W9:0	W10:0	W11:0	W12:0	W13:0	W14:0	W15:0	W16:0	W17:0	W18:0	W19:0	W20:0	W21:0	W22:0	W23:0	W24:0	W25:0	W26:0	W27:0	W28:0	W29:0	W30:0	W31:0	W32:950272
traffic_breakdown_coretomem[CONST_ACC_R] = 224 {8:28,}
traffic_breakdown_coretomem[GLOBAL_ACC_R] = 524288 {8:65536,}
traffic_breakdown_coretomem[GLOBAL_ACC_W] = 4456448 {136:32768,}
traffic_breakdown_coretomem[INST_ACC_R] = 448 {8:56,}
traffic_breakdown_memtocore[CONST_ACC_R] = 2016 {72:28,}
traffic_breakdown_memtocore[GLOBAL_ACC_R] = 8912896 {136:65536,}
traffic_breakdown_memtocore[GLOBAL_ACC_W] = 262144 {8:32768,}
traffic_breakdown_memtocore[INST_ACC_R] = 7616 {136:56,}
maxmrqlatency = 1917 
maxdqlatency = 0 
maxmflatency = 247686 
averagemflatency = 9257 
max_icnt2mem_latency = 247442 
max_icnt2sh_latency = 1833863 
mrq_lat_table:19899 	1074 	2111 	4791 	7779 	9816 	13719 	21400 	27432 	19142 	3912 	0 	0 	0 	0 	0 	0 	0 	0 	0 	0 	0 	0 	0 	0 	0 	0 	0 	0 	0 	0 	0 	
dq_lat_table:0 	0 	0 	0 	0 	0 	0 	0 	0 	0 	0 	0 	0 	0 	0 	0 	0 	0 	0 	0 	0 	0 	0 	0 	0 	0 	0 	0 	0 	0 	0 	0 	
mf_lat_table:0 	0 	0 	0 	0 	0 	0 	263 	7706 	41829 	30527 	1799 	416 	1056 	2147 	9867 	2506 	216 	0 	0 	0 	0 	0 	0 	0 	0 	0 	0 	0 	0 	0 	0 	
icnt2mem_lat_table:0 	0 	12306 	4677 	1433 	1180 	32024 	13229 	14153 	2801 	25 	352 	416 	1056 	2784 	9232 	2504 	216 	0 	0 	0 	0 	0 	0 	
icnt2sh_lat_table:0 	0 	51879 	12989 	664 	32 	0 	0 	0 	0 	0 	0 	0 	0 	0 	0 	0 	0 	4096 	12288 	16384 	0 	0 	0 	
mf_lat_pw_table:0 	0 	0 	0 	0 	0 	0 	1 	7 	38 	51 	9 	4 	13 	14 	43 	16 	4 	0 	0 	0 	0 	0 	0 	0 	0 	0 	0 	0 	0 	0 	0 	
maximum concurrent accesses to same row:
dram[0]:        32        32        32        32        32        32        32        32        32        32        32        32        32        32        32        32 
dram[1]:        32        32        32        32        32        32        32        32        32        32        32        32        32        32        32        32 
dram[2]:        32        32        32        32        32        32        32        32        32        32        32        32        32        32        32        32 
dram[3]:        32        32        32        32        32        32        32        32        32        32        32        32        32        32        32        32 
dram[4]:        32        32        32        32        32        32        32        32        32        32        32        32        32        32        32        32 
dram[5]:        32        32        32        32        32        32        32        32        32        32        32        32        32        32        32        32 
dram[6]:        32        32        32        32        32        32        32        32        32        32        32        32        32        32        32        32 
dram[7]:        32        32        32        32        32        32        32        32        32        32        32        32        32        32        32        32 
dram[8]:        32        32        32        32        32        32        32        32        32        32        32        32        32        32        32        32 
dram[9]:        32        32        32        32        32        32        32        32        32        32        32        32        32        32        32        32 
dram[10]:        32        32        32        32        32        32        32        32        32        32        32        32        32        32        32        32 
maximum service time to same row:
dram[0]:    374201    374542    374063    374164    373568    373420    373516    372864    372586    372945    372459    371118    373353    372715    372669    372961 
dram[1]:    374445    374774    374017    374087    373507    373371    372995    373025    372781    372761    371031    372698    372928    372837    372736    373084 
dram[2]:    374482    374625    373714    373877    373203    373539    372758    372921    372816    372919    372488    372532    373107    372845    372824    372739 
dram[3]:    374333    375030    373741    373759    373565    373330    373145    372845    372563    372834    372588    372749    372910    372879    372622    373001 
dram[4]:    374630    374760    373884    373592    373228    373126    373011    372615    372665    372940    372323    372519    372858    372854    372806    372918 
dram[5]:    374532    374558    373982    373761    373604    373434    372850    372990    372753    372749    372324    372499    372749    372908    372894    372863 
dram[6]:    374907    374644    373891    373913    373548    373136    372840    372904    372836    372977    372288    372409    372909    372829    372890    372715 
dram[7]:    374885    374577    373934    374082    373220    373134    373283    372589    372837    373007    372229    372381    372975    372798    372808    372832 
dram[8]:    374553    374687    374000    374003    373566    373495    372917    372333    372839    372985    372260    370921    372655    372604    373090    372872 
dram[9]:    374620    374746    373915    373940    373401    373151    372667    373004    373015    372841    372313    372492    372788    372698    372662    372971 
dram[10]:    374511    374681    373679    373927    373187    373249    373325    373015    372944    372930    372407    372680    372810    372865    372846    372843 
average row accesses per activate:
dram[0]: 19.307692 18.341463 17.904762 15.346939 14.188680 16.000000 17.904762 18.799999 16.711111 17.090910 17.285715 16.133333 17.116280 17.951220 16.000000 16.727272 
dram[1]: 18.799999 18.341463 15.346939 15.346939 16.711111 14.745098 16.347826 17.488373 17.488373 17.488373 16.155556 15.804348 19.368422 18.400000 14.153846 17.116280 
dram[2]: 17.488373 19.789474 16.000000 15.346939 14.745098 12.965517 18.799999 16.711111 16.711111 16.711111 18.174999 16.906977 18.871796 16.727272 17.116280 17.116280 
dram[3]: 18.341463 17.904762 15.666667 18.341463 16.711111 13.672728 16.000000 17.090910 16.711111 16.000000 16.906977 18.174999 17.951220 17.523809 16.000000 18.400000 
dram[4]: 17.090910 18.799999 16.711111 17.488373 15.040000 16.000000 16.000000 19.282051 18.341463 16.000000 17.731707 16.155556 19.368422 17.951220 16.750000 14.740000 
dram[5]: 18.341463 19.282051 15.346939 16.347826 14.188680 16.347826 18.799999 17.488373 15.040000 15.346939 18.125000 17.682926 19.368422 17.523809 16.727272 16.000000 
dram[6]: 19.789474 16.711111 16.711111 17.488373 17.488373 14.188680 19.282051 17.488373 15.666667 17.904762 16.860466 16.111111 19.368422 17.523809 17.523809 17.523809 
dram[7]: 19.282051 19.789474 15.346939 16.711111 17.488373 13.428572 16.711111 16.711111 16.000000 18.341463 16.477272 16.477272 17.523809 19.368422 15.659575 16.355556 
dram[8]: 18.799999 19.282051 16.000000 16.347826 15.666667 14.745098 17.488373 17.904762 17.090910 16.711111 16.860466 15.104167 18.400000 17.951220 17.523809 17.116280 
dram[9]: 19.789474 19.282051 15.346939 16.000000 16.347826 14.188680 18.341463 18.341463 19.282051 19.789474 18.125000 14.500000 18.400000 19.368422 16.355556 14.720000 
dram[10]: 20.324324 18.341463 16.347826 16.000000 13.925926 16.000000 17.090910 19.282051 17.090910 17.488373 16.111111 16.860466 17.951220 18.400000 15.659575 15.020409 
average row locality = 131075/7748 = 16.917269
number of total memory accesses made:
dram[0]:         0         0         0         0         0         0         0         0         0         0         0         0         0         0         0         0 
dram[1]:         0         0         0         0         0         0         0         0         0         0         0         0         0         0         0         0 
dram[2]:         0         0         0         0         0         0         0         0         0         0         0         0         0         0         0         0 
dram[3]:         0         0         0         0         0         0         0         0         0         0         0         0         0         0         0         0 
dram[4]:         0         0         0         0         0         0         0         0         0         0         0         0         0         0         0         0 
dram[5]:         0         0         0         0         0         0         0         0         0         0         0         0         0         0         0         0 
dram[6]:         0         0         0         0         0         0         0         0         0         0         0         0         0         0         0         0 
dram[7]:         0         0         0         0         0         0         0         0         0         0         0         0         0         0         0         0 
dram[8]:         0         0         0         0         0         0         0         0         0         0         0         0         0         0         0         0 
dram[9]:         0         0         0         0         0         0         0         0         0         0         0         0         0         0         0         0 
dram[10]:         0         0         0         0         0         0         0         0         0         0         0         0         0         0         0         0 
total accesses: 0
min_bank_accesses = 0!
min_chip_accesses = 0!
number of total read accesses:
dram[0]:       561       560       560       560       560       560       560       560       560       560       548       548       560       560       560       560 
dram[1]:       560       560       560       560       560       560       560       560       560       560       549       549       560       560       560       560 
dram[2]:       560       560       560       560       560       560       560       560       560       560       549       549       560       560       560       560 
dram[3]:       560       560       560       560       560       560       560       560       560       560       549       549       560       560       560       560 
dram[4]:       560       560       560       560       560       560       560       560       560       560       549       549       560       560       561       561 
dram[5]:       560       560       560       560       560       560       560       560       560       560       548       548       560       560       560       560 
dram[6]:       560       560       560       560       560       560       560       560       560       560       548       548       560       560       560       560 
dram[7]:       560       560       560       560       560       560       560       560       560       560       548       548       560       560       560       560 
dram[8]:       560       560       560       560       560       560       560       560       560       560       548       548       560       560       560       560 
dram[9]:       560       560       560       560       560       560       560       560       560       560       548       548       560       560       560       560 
dram[10]:       560       560       560       560       560       560       560       560       560       560       548       548       560       560       560       560 
total reads: 98307
bank skew: 561/548 = 1.02
chip skew: 8940/8936 = 1.00
number of total write accesses:
dram[0]:       192       192       192       192       192       192       192       192       192       192       178       178       176       176       176       176 
dram[1]:       192       192       192       192       192       192       192       192       192       192       178       178       176       176       176       176 
dram[2]:       192       192       192       192       192       192       192       192       192       192       178       178       176       176       176       176 
dram[3]:       192       192       192       192       192       192       192       192       192       192       178       178       176       176       176       176 
dram[4]:       192       192       192       192       192       192       192       192       192       192       178       178       176       176       176       176 
dram[5]:       192       192       192       192       192       192       192       192       192       192       177       177       176       176       176       176 
dram[6]:       192       192       192       192       192       192       192       192       192       192       177       177       176       176       176       176 
dram[7]:       192       192       192       192       192       192       192       192       192       192       177       177       176       176       176       176 
dram[8]:       192       192       192       192       192       192       192       192       192       192       177       177       176       176       176       176 
dram[9]:       192       192       192       192       192       192       192       192       192       192       177       177       176       176       176       176 
dram[10]:       192       192       192       192       192       192       192       192       192       192       177       177       176       176       176       176 
total reads: 32768
bank skew: 192/176 = 1.09
chip skew: 2980/2978 = 1.00
average mf latency per bank:
dram[0]:       7751      7718      8392      8341      8370      8422      5129      5176      5430      5467      6913      6873      6988      6987      6709      6699
dram[1]:       7930      7869      8411      8342      7969      7988      5123      5156      5424      5423      7130      7118      6840      6843      6670      6708
dram[2]:       7914      7907      8406      8369      7972      7976      5262      5225      5276      5252      7020      6945      6878      6880      6687      6724
dram[3]:       7895      7858      8353      8389      8005      7976      5206      5240      5265      5254      6979      6955      6877      6868      6720      6725
dram[4]:       7872      7912      8451      8407      8021      8023      5183      5214      5264      5231      7127      7111      6909      6915      6957      6904
dram[5]:       8035      7993      8340      8300      8016      8008      5135      5154      5224      5224      7160      7172      6973      6941      6925      6922
dram[6]:       7996      7951      8328      8350      8018      7984      5182      5104      5217      5259      7171      7204      6930      6927      6623      6638
dram[7]:       8209      8226      7986      8027      7941      7866      5308      5280      5246      5266      7006      6998      6926      7004      6598      6609
dram[8]:       8141      8186      8015      8009      7904      7883      5315      5311      5284      5251      7051      6990      7045      7067      6611      6578
dram[9]:       8150      8152      8018      8040      8051      8068      5258      5308      5366      5394      7002      6984      7018      7058      6677      6641
dram[10]:       8128      8076      8067      8007      8277      8290      5299      5311      5399      5389      7121      7077      6941      6939      6645      6662
maximum mf latency per bank:
dram[0]:     247677    247664    247592    247595    247112    247114    124005    124002    123914    123906    127205    127197    127202    127204    127125    127124
dram[1]:     247675    247676    247597    247593    247105    247112    124004    123984    123930    123928    127199    127213    127194    127198    127126    127118
dram[2]:     247652    247645    247618    247615    247086    247076    123997    123980    123924    123923    127194    127190    127209    127214    127124    127123
dram[3]:     247651    247628    247604    247597    247084    247076    123993    123984    123922    123900    127200    127200    127213    127218    127119    127105
dram[4]:     247635    247630    247598    247600    247077    247076    124003    124003    123947    123929    127200    127209    127201    127217    127128    127126
dram[5]:     247683    247673    247593    247600    247074    247073    124002    123986    123932    123927    127199    127211    127200    127200    127127    127120
dram[6]:     247686    247658    247601    247598    247052    247043    123997    123996    123928    123905    127195    127201    127217    127226    127120    127107
dram[7]:     247678    247659    247596    247597    246998    246993    123998    123992    123925    123915    127150    127152    127222    127211    127118    127100
dram[8]:     247675    247657    247596    247606    247000    246998    123981    123978    123954    123937    127150    127145    127222    127213    127100    127087
dram[9]:     247684    247680    247615    247615    247130    247101    123981    123961    123940    123931    127143    127148    127219    127222    127117    127102
dram[10]:     247684    247674    247608    247601    247116    247114    123974    123962    123934    123933    127204    127216    127195    127202    127107    127096
Memory Partition 0: 
Cache L2_bank_000:
MSHR contents

Cache L2_bank_001:
MSHR contents

In Dram Latency Queue (total = 0): 
DRAM[0]: 16 bks, busW=4 BL=8 CL=12, tRRD=2 tCCD=6, tRCD=12 tRAS=28 tRP=12 tRC=40
n_cmd=2992715 n_nop=2943655 n_act=704 n_pre=688 n_req=11917 n_rd=35748 n_write=11920 bw_util=0.03186
n_activity=108895 dram_eff=0.8755
bk0: 2244a 2949918i bk1: 2240a 2950183i bk2: 2240a 2950013i bk3: 2240a 2948412i bk4: 2240a 2950419i bk5: 2240a 2949536i bk6: 2240a 2950795i bk7: 2240a 2949762i bk8: 2240a 2950597i bk9: 2240a 2948688i bk10: 2192a 2952357i bk11: 2192a 2951513i bk12: 2240a 2954311i bk13: 2240a 2951684i bk14: 2240a 2950882i bk15: 2240a 2951660i 
dram_util_bins: 0 0 0 0 0 0 0 0 0 0
dram_eff_bins: 0 0 0 0 0 0 0 0 0 0
mrqq: max=64 avg=1.93104
Memory Partition 1: 
Cache L2_bank_002:
MSHR contents

Cache L2_bank_003:
MSHR contents

In Dram Latency Queue (total = 0): 
DRAM[1]: 16 bks, busW=4 BL=8 CL=12, tRRD=2 tCCD=6, tRCD=12 tRAS=28 tRP=12 tRC=40
n_cmd=2992715 n_nop=2943631 n_act=714 n_pre=698 n_req=11918 n_rd=35752 n_write=11920 bw_util=0.03186
n_activity=108921 dram_eff=0.8753
bk0: 2240a 2949612i bk1: 2240a 2948837i bk2: 2240a 2950426i bk3: 2240a 2949649i bk4: 2240a 2951608i bk5: 2240a 2949582i bk6: 2240a 2950582i bk7: 2240a 2947966i bk8: 2240a 2951196i bk9: 2240a 2950021i bk10: 2196a 2951708i bk11: 2196a 2952309i bk12: 2240a 2953209i bk13: 2240a 2951272i bk14: 2240a 2950861i bk15: 2240a 2950596i 
dram_util_bins: 0 0 0 0 0 0 0 0 0 0
dram_eff_bins: 0 0 0 0 0 0 0 0 0 0
mrqq: max=64 avg=1.91987
Memory Partition 2: 
Cache L2_bank_004:
MSHR contents

Cache L2_bank_005:
MSHR contents

In Dram Latency Queue (total = 0): 
DRAM[2]: 16 bks, busW=4 BL=8 CL=12, tRRD=2 tCCD=6, tRCD=12 tRAS=28 tRP=12 tRC=40
n_cmd=2992715 n_nop=2943633 n_act=713 n_pre=697 n_req=11918 n_rd=35752 n_write=11920 bw_util=0.03186
n_activity=108741 dram_eff=0.8768
bk0: 2240a 2949524i bk1: 2240a 2948838i bk2: 2240a 2950111i bk3: 2240a 2948653i bk4: 2240a 2950917i bk5: 2240a 2949126i bk6: 2240a 2950186i bk7: 2240a 2950048i bk8: 2240a 2949802i bk9: 2240a 2950125i bk10: 2196a 2952475i bk11: 2196a 2950703i bk12: 2240a 2954693i bk13: 2240a 2951050i bk14: 2240a 2951884i bk15: 2240a 2951433i 
dram_util_bins: 0 0 0 0 0 0 0 0 0 0
dram_eff_bins: 0 0 0 0 0 0 0 0 0 0
mrqq: max=64 avg=1.92857
Memory Partition 3: 
Cache L2_bank_006:
MSHR contents

Cache L2_bank_007:
MSHR contents

In Dram Latency Queue (total = 0): 
DRAM[3]: 16 bks, busW=4 BL=8 CL=12, tRRD=2 tCCD=6, tRCD=12 tRAS=28 tRP=12 tRC=40
n_cmd=2992715 n_nop=2943645 n_act=707 n_pre=691 n_req=11918 n_rd=35752 n_write=11920 bw_util=0.03186
n_activity=109030 dram_eff=0.8745
bk0: 2240a 2950007i bk1: 2240a 2950273i bk2: 2240a 2951226i bk3: 2240a 2949092i bk4: 2240a 2952059i bk5: 2240a 2948628i bk6: 2240a 2952024i bk7: 2240a 2949068i bk8: 2240a 2950712i bk9: 2240a 2950092i bk10: 2196a 2953642i bk11: 2196a 2952134i bk12: 2240a 2955152i bk13: 2240a 2952175i bk14: 2240a 2952441i bk15: 2240a 2951639i 
dram_util_bins: 0 0 0 0 0 0 0 0 0 0
dram_eff_bins: 0 0 0 0 0 0 0 0 0 0
mrqq: max=64 avg=1.92702
Memory Partition 4: 
Cache L2_bank_008:
MSHR contents

Cache L2_bank_009:
MSHR contents

In Dram Latency Queue (total = 0): 
DRAM[4]: 16 bks, busW=4 BL=8 CL=12, tRRD=2 tCCD=6, tRCD=12 tRAS=28 tRP=12 tRC=40
n_cmd=2992715 n_nop=2943647 n_act=702 n_pre=686 n_req=11920 n_rd=35760 n_write=11920 bw_util=0.03186
n_activity=109126 dram_eff=0.8739
bk0: 2240a 2950115i bk1: 2240a 2950865i bk2: 2240a 2950737i bk3: 2240a 2949824i bk4: 2240a 2951007i bk5: 2240a 2949988i bk6: 2240a 2952211i bk7: 2240a 2948401i bk8: 2240a 2949895i bk9: 2240a 2950001i bk10: 2196a 2954227i bk11: 2196a 2951489i bk12: 2240a 2954535i bk13: 2240a 2951240i bk14: 2244a 2952548i bk15: 2244a 2951836i 
dram_util_bins: 0 0 0 0 0 0 0 0 0 0
dram_eff_bins: 0 0 0 0 0 0 0 0 0 0
mrqq: max=64 avg=1.9227
Memory Partition 5: 
Cache L2_bank_010:
MSHR contents

Cache L2_bank_011:
MSHR contents

In Dram Latency Queue (total = 0): 
DRAM[5]: 16 bks, busW=4 BL=8 CL=12, tRRD=2 tCCD=6, tRCD=12 tRAS=28 tRP=12 tRC=40
n_cmd=2992715 n_nop=2943661 n_act=707 n_pre=691 n_req=11914 n_rd=35744 n_write=11912 bw_util=0.03185
n_activity=109050 dram_eff=0.874
bk0: 2240a 2951033i bk1: 2240a 2950320i bk2: 2240a 2951591i bk3: 2240a 2949919i bk4: 2240a 2951851i bk5: 2240a 2949915i bk6: 2240a 2951753i bk7: 2240a 2950183i bk8: 2240a 2949937i bk9: 2240a 2948198i bk10: 2192a 2955319i bk11: 2192a 2952741i bk12: 2240a 2954428i bk13: 2240a 2951778i bk14: 2240a 2952612i bk15: 2240a 2951232i 
dram_util_bins: 0 0 0 0 0 0 0 0 0 0
dram_eff_bins: 0 0 0 0 0 0 0 0 0 0
mrqq: max=64 avg=1.93043
Memory Partition 6: 
Cache L2_bank_012:
MSHR contents

Cache L2_bank_013:
MSHR contents

In Dram Latency Queue (total = 0): 
DRAM[6]: 16 bks, busW=4 BL=8 CL=12, tRRD=2 tCCD=6, tRCD=12 tRAS=28 tRP=12 tRC=40
n_cmd=2992715 n_nop=2943693 n_act=691 n_pre=675 n_req=11914 n_rd=35744 n_write=11912 bw_util=0.03185
n_activity=108951 dram_eff=0.8748
bk0: 2240a 2952210i bk1: 2240a 2951274i bk2: 2240a 2951814i bk3: 2240a 2951704i bk4: 2240a 2951012i bk5: 2240a 2950575i bk6: 2240a 2949585i bk7: 2240a 2948453i bk8: 2240a 2949647i bk9: 2240a 2948711i bk10: 2192a 2953632i bk11: 2192a 2951831i bk12: 2240a 2956066i bk13: 2240a 2951405i bk14: 2240a 2952558i bk15: 2240a 2951222i 
dram_util_bins: 0 0 0 0 0 0 0 0 0 0
dram_eff_bins: 0 0 0 0 0 0 0 0 0 0
mrqq: max=64 avg=1.92727
Memory Partition 7: 
Cache L2_bank_014:
MSHR contents

Cache L2_bank_015:
MSHR contents

In Dram Latency Queue (total = 0): 
DRAM[7]: 16 bks, busW=4 BL=8 CL=12, tRRD=2 tCCD=6, tRCD=12 tRAS=28 tRP=12 tRC=40
n_cmd=2992715 n_nop=2943659 n_act=708 n_pre=692 n_req=11914 n_rd=35744 n_write=11912 bw_util=0.03185
n_activity=108876 dram_eff=0.8754
bk0: 2240a 2952254i bk1: 2240a 2950440i bk2: 2240a 2951596i bk3: 2240a 2950728i bk4: 2240a 2950507i bk5: 2240a 2947747i bk6: 2240a 2950567i bk7: 2240a 2948631i bk8: 2240a 2950621i bk9: 2240a 2949871i bk10: 2192a 2953281i bk11: 2192a 2953319i bk12: 2240a 2954296i bk13: 2240a 2951732i bk14: 2240a 2952197i bk15: 2240a 2950503i 
dram_util_bins: 0 0 0 0 0 0 0 0 0 0
dram_eff_bins: 0 0 0 0 0 0 0 0 0 0
mrqq: max=64 avg=1.92436
Memory Partition 8: 
Cache L2_bank_016:
MSHR contents

Cache L2_bank_017:
MSHR contents

In Dram Latency Queue (total = 0): 
DRAM[8]: 16 bks, busW=4 BL=8 CL=12, tRRD=2 tCCD=6, tRCD=12 tRAS=28 tRP=12 tRC=40
n_cmd=2992715 n_nop=2943671 n_act=702 n_pre=686 n_req=11914 n_rd=35744 n_write=11912 bw_util=0.03185
n_activity=108928 dram_eff=0.875
bk0: 2240a 2950963i bk1: 2240a 2950923i bk2: 2240a 2950847i bk3: 2240a 2949568i bk4: 2240a 2951120i bk5: 2240a 2950327i bk6: 2240a 2950404i bk7: 2240a 2950353i bk8: 2240a 2950749i bk9: 2240a 2949199i bk10: 2192a 2953920i bk11: 2192a 2952755i bk12: 2240a 2954615i bk13: 2240a 2952244i bk14: 2240a 2952901i bk15: 2240a 2951681i 
dram_util_bins: 0 0 0 0 0 0 0 0 0 0
dram_eff_bins: 0 0 0 0 0 0 0 0 0 0
mrqq: max=64 avg=1.92363
Memory Partition 9: 
Cache L2_bank_018:
MSHR contents

Cache L2_bank_019:
MSHR contents

In Dram Latency Queue (total = 0): 
DRAM[9]: 16 bks, busW=4 BL=8 CL=12, tRRD=2 tCCD=6, tRCD=12 tRAS=28 tRP=12 tRC=40
n_cmd=2992715 n_nop=2943687 n_act=694 n_pre=678 n_req=11914 n_rd=35744 n_write=11912 bw_util=0.03185
n_activity=108795 dram_eff=0.8761
bk0: 2240a 2950880i bk1: 2240a 2950509i bk2: 2240a 2951229i bk3: 2240a 2949664i bk4: 2240a 2950741i bk5: 2240a 2949221i bk6: 2240a 2950854i bk7: 2240a 2950260i bk8: 2240a 2950218i bk9: 2240a 2949130i bk10: 2192a 2952604i bk11: 2192a 2951717i bk12: 2240a 2953892i bk13: 2240a 2951346i bk14: 2240a 2952172i bk15: 2240a 2952548i 
dram_util_bins: 0 0 0 0 0 0 0 0 0 0
dram_eff_bins: 0 0 0 0 0 0 0 0 0 0
mrqq: max=64 avg=1.93178
Memory Partition 10: 
Cache L2_bank_020:
MSHR contents

Cache L2_bank_021:
MSHR contents
MSHR: tag=0xc0bfef80, atomic=0 1 entries : 0x7f3e9839bcc0 :  mf: uid=798153, sid07:w47, part=10, addr=0xc0bfef80, load , size=128, unknown  status = IN_PARTITION_DRAM (1833863), 

In Dram Latency Queue (total = 0): 
DRAM[10]: 16 bks, busW=4 BL=8 CL=12, tRRD=2 tCCD=6, tRCD=12 tRAS=28 tRP=12 tRC=40
n_cmd=2992715 n_nop=2943662 n_act=707 n_pre=691 n_req=11914 n_rd=35743 n_write=11912 bw_util=0.03185
n_activity=109095 dram_eff=0.8736
bk0: 2240a 2949615i bk1: 2240a 2949041i bk2: 2240a 2951319i bk3: 2240a 2951922i bk4: 2240a 2952236i bk5: 2240a 2950559i bk6: 2240a 2951394i bk7: 2240a 2950932i bk8: 2240a 2951751i bk9: 2239a 2950877i bk10: 2192a 2953917i bk11: 2192a 2951189i bk12: 2240a 2952706i bk13: 2240a 2951369i bk14: 2240a 2952289i bk15: 2240a 2951073i 
dram_util_bins: 0 0 0 0 0 0 0 0 0 0
dram_eff_bins: 0 0 0 0 0 0 0 0 0 0
mrqq: max=64 avg=1.92989

========= L2 cache stats =========
L2_cache_bank[0]: Access = 4496, Miss = 4469, Miss_rate = 0.994, Pending_hits = 27, Reservation_fails = 13
L2_cache_bank[1]: Access = 4468, Miss = 4468, Miss_rate = 1.000, Pending_hits = 0, Reservation_fails = 13
L2_cache_bank[2]: Access = 4469, Miss = 4469, Miss_rate = 1.000, Pending_hits = 0, Reservation_fails = 11
L2_cache_bank[3]: Access = 4469, Miss = 4469, Miss_rate = 1.000, Pending_hits = 0, Reservation_fails = 10
L2_cache_bank[4]: Access = 4469, Miss = 4469, Miss_rate = 1.000, Pending_hits = 0, Reservation_fails = 17
L2_cache_bank[5]: Access = 4469, Miss = 4469, Miss_rate = 1.000, Pending_hits = 0, Reservation_fails = 8
L2_cache_bank[6]: Access = 4469, Miss = 4469, Miss_rate = 1.000, Pending_hits = 0, Reservation_fails = 19
L2_cache_bank[7]: Access = 4469, Miss = 4469, Miss_rate = 1.000, Pending_hits = 0, Reservation_fails = 11
L2_cache_bank[8]: Access = 4497, Miss = 4470, Miss_rate = 0.994, Pending_hits = 27, Reservation_fails = 19
L2_cache_bank[9]: Access = 4497, Miss = 4470, Miss_rate = 0.994, Pending_hits = 27, Reservation_fails = 8
L2_cache_bank[10]: Access = 4468, Miss = 4468, Miss_rate = 1.000, Pending_hits = 0, Reservation_fails = 17
L2_cache_bank[11]: Access = 4468, Miss = 4468, Miss_rate = 1.000, Pending_hits = 0, Reservation_fails = 11
L2_cache_bank[12]: Access = 4468, Miss = 4468, Miss_rate = 1.000, Pending_hits = 0, Reservation_fails = 15
L2_cache_bank[13]: Access = 4468, Miss = 4468, Miss_rate = 1.000, Pending_hits = 0, Reservation_fails = 8
L2_cache_bank[14]: Access = 4468, Miss = 4468, Miss_rate = 1.000, Pending_hits = 0, Reservation_fails = 21
L2_cache_bank[15]: Access = 4468, Miss = 4468, Miss_rate = 1.000, Pending_hits = 0, Reservation_fails = 11
L2_cache_bank[16]: Access = 4468, Miss = 4468, Miss_rate = 1.000, Pending_hits = 0, Reservation_fails = 24
L2_cache_bank[17]: Access = 4468, Miss = 4468, Miss_rate = 1.000, Pending_hits = 0, Reservation_fails = 9
L2_cache_bank[18]: Access = 4468, Miss = 4468, Miss_rate = 1.000, Pending_hits = 0, Reservation_fails = 20
L2_cache_bank[19]: Access = 4468, Miss = 4468, Miss_rate = 1.000, Pending_hits = 0, Reservation_fails = 7
L2_cache_bank[20]: Access = 4468, Miss = 4468, Miss_rate = 1.000, Pending_hits = 0, Reservation_fails = 9
L2_cache_bank[21]: Access = 4468, Miss = 4468, Miss_rate = 1.000, Pending_hits = 0, Reservation_fails = 12
L2_total_cache_accesses = 98388
L2_total_cache_misses = 98307
L2_total_cache_miss_rate = 0.9992
L2_total_cache_pending_hits = 81
L2_total_cache_reservation_fails = 293
L2_total_cache_breakdown:
	L2_cache_stats_breakdown[GLOBAL_ACC_R][HIT] = 0
	L2_cache_stats_breakdown[GLOBAL_ACC_R][HIT_RESERVED] = 0
	L2_cache_stats_breakdown[GLOBAL_ACC_R][MISS] = 65536
	L2_cache_stats_breakdown[GLOBAL_ACC_R][RESERVATION_FAIL] = 0
	L2_cache_stats_breakdown[LOCAL_ACC_R][HIT] = 0
	L2_cache_stats_breakdown[LOCAL_ACC_R][HIT_RESERVED] = 0
	L2_cache_stats_breakdown[LOCAL_ACC_R][MISS] = 0
	L2_cache_stats_breakdown[LOCAL_ACC_R][RESERVATION_FAIL] = 0
	L2_cache_stats_breakdown[CONST_ACC_R][HIT] = 0
	L2_cache_stats_breakdown[CONST_ACC_R][HIT_RESERVED] = 27
	L2_cache_stats_breakdown[CONST_ACC_R][MISS] = 1
	L2_cache_stats_breakdown[CONST_ACC_R][RESERVATION_FAIL] = 0
	L2_cache_stats_breakdown[TEXTURE_ACC_R][HIT] = 0
	L2_cache_stats_breakdown[TEXTURE_ACC_R][HIT_RESERVED] = 0
	L2_cache_stats_breakdown[TEXTURE_ACC_R][MISS] = 0
	L2_cache_stats_breakdown[TEXTURE_ACC_R][RESERVATION_FAIL] = 0
	L2_cache_stats_breakdown[GLOBAL_ACC_W][HIT] = 0
	L2_cache_stats_breakdown[GLOBAL_ACC_W][HIT_RESERVED] = 0
	L2_cache_stats_breakdown[GLOBAL_ACC_W][MISS] = 32768
	L2_cache_stats_breakdown[GLOBAL_ACC_W][RESERVATION_FAIL] = 293
	L2_cache_stats_breakdown[LOCAL_ACC_W][HIT] = 0
	L2_cache_stats_breakdown[LOCAL_ACC_W][HIT_RESERVED] = 0
	L2_cache_stats_breakdown[LOCAL_ACC_W][MISS] = 0
	L2_cache_stats_breakdown[LOCAL_ACC_W][RESERVATION_FAIL] = 0
	L2_cache_stats_breakdown[L1_WRBK_ACC][HIT] = 0
	L2_cache_stats_breakdown[L1_WRBK_ACC][HIT_RESERVED] = 0
	L2_cache_stats_breakdown[L1_WRBK_ACC][MISS] = 0
	L2_cache_stats_breakdown[L1_WRBK_ACC][RESERVATION_FAIL] = 0
	L2_cache_stats_breakdown[L2_WRBK_ACC][HIT] = 0
	L2_cache_stats_breakdown[L2_WRBK_ACC][HIT_RESERVED] = 0
	L2_cache_stats_breakdown[L2_WRBK_ACC][MISS] = 0
	L2_cache_stats_breakdown[L2_WRBK_ACC][RESERVATION_FAIL] = 0
	L2_cache_stats_breakdown[INST_ACC_R][HIT] = 0
	L2_cache_stats_breakdown[INST_ACC_R][HIT_RESERVED] = 54
	L2_cache_stats_breakdown[INST_ACC_R][MISS] = 2
	L2_cache_stats_breakdown[INST_ACC_R][RESERVATION_FAIL] = 0
	L2_cache_stats_breakdown[L1_WR_ALLOC_R][HIT] = 0
	L2_cache_stats_breakdown[L1_WR_ALLOC_R][HIT_RESERVED] = 0
	L2_cache_stats_breakdown[L1_WR_ALLOC_R][MISS] = 0
	L2_cache_stats_breakdown[L1_WR_ALLOC_R][RESERVATION_FAIL] = 0
	L2_cache_stats_breakdown[L2_WR_ALLOC_R][HIT] = 0
	L2_cache_stats_breakdown[L2_WR_ALLOC_R][HIT_RESERVED] = 0
	L2_cache_stats_breakdown[L2_WR_ALLOC_R][MISS] = 0
	L2_cache_stats_breakdown[L2_WR_ALLOC_R][RESERVATION_FAIL] = 0
	L2_cache_stats_breakdown[GLOBAL_ACC_R][TOTAL_ACCESS] = 65536
	L2_cache_stats_breakdown[CONST_ACC_R][TOTAL_ACCESS] = 28
	L2_cache_stats_breakdown[GLOBAL_ACC_W][TOTAL_ACCESS] = 32768
	L2_cache_stats_breakdown[INST_ACC_R][TOTAL_ACCESS] = 56
L2_cache_data_port_util = 0.000
L2_cache_fill_port_util = 0.011

icnt_total_pkts_mem_to_simt=360812
icnt_total_pkts_simt_to_mem=229460
LD_mem_lat_dist  0 0 0 0 0 0 0 0 0 0 0 0 0 0 0 0 0 0 0 0 0 0 0 0 0 0 0
ST_mem_lat_dist  0 0 0 0 0 0 0 0 0 0 0 0 0 0 0 0 0 0 0 0 0 0 0 0 0 0 0
----------------------------Interconnect-DETAILS--------------------------------
Class 0:
Packet latency average = 39.379
	minimum = 6
	maximum = 1348
Network latency average = 29.8487
	minimum = 6
	maximum = 1127
Slowest packet = 42693
Flit latency average = 22.0523
	minimum = 6
	maximum = 1122
Slowest flit = 518421
Fragmentation average = 0.771664
	minimum = 0
	maximum = 743
Injected packet rate average = 0.00122091
	minimum = 0.0010433 (at node 26)
	maximum = 0.0013951 (at node 36)
Accepted packet rate average = 0.00122091
	minimum = 0.0010433 (at node 26)
	maximum = 0.0013951 (at node 36)
Injected flit rate average = 0.00366239
	minimum = 0.00243313 (at node 26)
	maximum = 0.00512653 (at node 36)
Accepted flit rate average= 0.00366239
	minimum = 0.00323383 (at node 38)
	maximum = 0.00415366 (at node 11)
Injected packet length average = 2.99972
Accepted packet length average = 2.99972
Total in-flight flits = 0 (0 measured)
====== Overall Traffic Statistics ======
====== Traffic class 0 ======
Packet latency average = 39.379 (1 samples)
	minimum = 6 (1 samples)
	maximum = 1348 (1 samples)
Network latency average = 29.8487 (1 samples)
	minimum = 6 (1 samples)
	maximum = 1127 (1 samples)
Flit latency average = 22.0523 (1 samples)
	minimum = 6 (1 samples)
	maximum = 1122 (1 samples)
Fragmentation average = 0.771664 (1 samples)
	minimum = 0 (1 samples)
	maximum = 743 (1 samples)
Injected packet rate average = 0.00122091 (1 samples)
	minimum = 0.0010433 (1 samples)
	maximum = 0.0013951 (1 samples)
Accepted packet rate average = 0.00122091 (1 samples)
	minimum = 0.0010433 (1 samples)
	maximum = 0.0013951 (1 samples)
Injected flit rate average = 0.00366239 (1 samples)
	minimum = 0.00243313 (1 samples)
	maximum = 0.00512653 (1 samples)
Accepted flit rate average = 0.00366239 (1 samples)
	minimum = 0.00323383 (1 samples)
	maximum = 0.00415366 (1 samples)
Injected packet size average = 2.99972 (1 samples)
Accepted packet size average = 2.99972 (1 samples)
Hops average = 1 (1 samples)
----------------------------END-of-Interconnect-DETAILS-------------------------


gpgpu_simulation_time = 0 days, 0 hrs, 27 min, 4 sec (1624 sec)
gpgpu_simulation_rate = 17433 (inst/sec)
gpgpu_simulation_rate = 1129 (cycle/sec)
========================================UVM statistics==============================
========================================TLB statistics(access)==============================
Shader0: Tlb_access: 3480 Tlb_hit: 816 Tlb_miss: 2664 Tlb_hit_rate: 0.234483
Shader1: Tlb_access: 3600 Tlb_hit: 901 Tlb_miss: 2699 Tlb_hit_rate: 0.250278
Shader2: Tlb_access: 3504 Tlb_hit: 896 Tlb_miss: 2608 Tlb_hit_rate: 0.255708
Shader3: Tlb_access: 3552 Tlb_hit: 836 Tlb_miss: 2716 Tlb_hit_rate: 0.235360
Shader4: Tlb_access: 3576 Tlb_hit: 861 Tlb_miss: 2715 Tlb_hit_rate: 0.240772
Shader5: Tlb_access: 3504 Tlb_hit: 800 Tlb_miss: 2704 Tlb_hit_rate: 0.228310
Shader6: Tlb_access: 3528 Tlb_hit: 835 Tlb_miss: 2693 Tlb_hit_rate: 0.236678
Shader7: Tlb_access: 3576 Tlb_hit: 772 Tlb_miss: 2804 Tlb_hit_rate: 0.215884
Shader8: Tlb_access: 3528 Tlb_hit: 850 Tlb_miss: 2678 Tlb_hit_rate: 0.240930
Shader9: Tlb_access: 3480 Tlb_hit: 818 Tlb_miss: 2662 Tlb_hit_rate: 0.235057
Shader10: Tlb_access: 3504 Tlb_hit: 826 Tlb_miss: 2678 Tlb_hit_rate: 0.235731
Shader11: Tlb_access: 3648 Tlb_hit: 880 Tlb_miss: 2768 Tlb_hit_rate: 0.241228
Shader12: Tlb_access: 3384 Tlb_hit: 809 Tlb_miss: 2575 Tlb_hit_rate: 0.239066
Shader13: Tlb_access: 3432 Tlb_hit: 877 Tlb_miss: 2555 Tlb_hit_rate: 0.255536
Shader14: Tlb_access: 3456 Tlb_hit: 871 Tlb_miss: 2585 Tlb_hit_rate: 0.252025
Shader15: Tlb_access: 3480 Tlb_hit: 810 Tlb_miss: 2670 Tlb_hit_rate: 0.232759
Shader16: Tlb_access: 3552 Tlb_hit: 906 Tlb_miss: 2646 Tlb_hit_rate: 0.255068
Shader17: Tlb_access: 3504 Tlb_hit: 834 Tlb_miss: 2670 Tlb_hit_rate: 0.238014
Shader18: Tlb_access: 3624 Tlb_hit: 799 Tlb_miss: 2825 Tlb_hit_rate: 0.220475
Shader19: Tlb_access: 3408 Tlb_hit: 785 Tlb_miss: 2623 Tlb_hit_rate: 0.230340
Shader20: Tlb_access: 3384 Tlb_hit: 802 Tlb_miss: 2582 Tlb_hit_rate: 0.236998
Shader21: Tlb_access: 3576 Tlb_hit: 837 Tlb_miss: 2739 Tlb_hit_rate: 0.234060
Shader22: Tlb_access: 3480 Tlb_hit: 760 Tlb_miss: 2720 Tlb_hit_rate: 0.218391
Shader23: Tlb_access: 3552 Tlb_hit: 826 Tlb_miss: 2726 Tlb_hit_rate: 0.232545
Shader24: Tlb_access: 3552 Tlb_hit: 827 Tlb_miss: 2725 Tlb_hit_rate: 0.232827
Shader25: Tlb_access: 3456 Tlb_hit: 861 Tlb_miss: 2595 Tlb_hit_rate: 0.249132
Shader26: Tlb_access: 3360 Tlb_hit: 814 Tlb_miss: 2546 Tlb_hit_rate: 0.242262
Shader27: Tlb_access: 3624 Tlb_hit: 832 Tlb_miss: 2792 Tlb_hit_rate: 0.229581
Tlb_tot_access: 98304 Tlb_tot_hit: 23341, Tlb_tot_miss: 74963, Tlb_tot_hit_rate: 0.237437
========================================TLB statistics(validate)==============================
Shader0: Tlb_validate: 429 Tlb_invalidate: 214 Tlb_evict: 0 Tlb_page_evict: 214
Shader1: Tlb_validate: 435 Tlb_invalidate: 218 Tlb_evict: 0 Tlb_page_evict: 218
Shader2: Tlb_validate: 426 Tlb_invalidate: 213 Tlb_evict: 0 Tlb_page_evict: 213
Shader3: Tlb_validate: 438 Tlb_invalidate: 218 Tlb_evict: 0 Tlb_page_evict: 218
Shader4: Tlb_validate: 444 Tlb_invalidate: 223 Tlb_evict: 0 Tlb_page_evict: 223
Shader5: Tlb_validate: 435 Tlb_invalidate: 218 Tlb_evict: 0 Tlb_page_evict: 218
Shader6: Tlb_validate: 438 Tlb_invalidate: 222 Tlb_evict: 0 Tlb_page_evict: 222
Shader7: Tlb_validate: 441 Tlb_invalidate: 219 Tlb_evict: 0 Tlb_page_evict: 219
Shader8: Tlb_validate: 435 Tlb_invalidate: 220 Tlb_evict: 0 Tlb_page_evict: 220
Shader9: Tlb_validate: 429 Tlb_invalidate: 214 Tlb_evict: 0 Tlb_page_evict: 214
Shader10: Tlb_validate: 429 Tlb_invalidate: 210 Tlb_evict: 0 Tlb_page_evict: 210
Shader11: Tlb_validate: 444 Tlb_invalidate: 220 Tlb_evict: 0 Tlb_page_evict: 220
Shader12: Tlb_validate: 417 Tlb_invalidate: 208 Tlb_evict: 0 Tlb_page_evict: 208
Shader13: Tlb_validate: 411 Tlb_invalidate: 206 Tlb_evict: 0 Tlb_page_evict: 206
Shader14: Tlb_validate: 417 Tlb_invalidate: 209 Tlb_evict: 0 Tlb_page_evict: 209
Shader15: Tlb_validate: 432 Tlb_invalidate: 219 Tlb_evict: 0 Tlb_page_evict: 219
Shader16: Tlb_validate: 429 Tlb_invalidate: 215 Tlb_evict: 0 Tlb_page_evict: 215
Shader17: Tlb_validate: 426 Tlb_invalidate: 214 Tlb_evict: 0 Tlb_page_evict: 214
Shader18: Tlb_validate: 441 Tlb_invalidate: 221 Tlb_evict: 0 Tlb_page_evict: 221
Shader19: Tlb_validate: 417 Tlb_invalidate: 208 Tlb_evict: 0 Tlb_page_evict: 208
Shader20: Tlb_validate: 405 Tlb_invalidate: 198 Tlb_evict: 0 Tlb_page_evict: 198
Shader21: Tlb_validate: 435 Tlb_invalidate: 220 Tlb_evict: 0 Tlb_page_evict: 220
Shader22: Tlb_validate: 417 Tlb_invalidate: 207 Tlb_evict: 0 Tlb_page_evict: 207
Shader23: Tlb_validate: 435 Tlb_invalidate: 217 Tlb_evict: 0 Tlb_page_evict: 217
Shader24: Tlb_validate: 429 Tlb_invalidate: 210 Tlb_evict: 0 Tlb_page_evict: 210
Shader25: Tlb_validate: 420 Tlb_invalidate: 207 Tlb_evict: 0 Tlb_page_evict: 207
Shader26: Tlb_validate: 411 Tlb_invalidate: 203 Tlb_evict: 0 Tlb_page_evict: 203
Shader27: Tlb_validate: 441 Tlb_invalidate: 217 Tlb_evict: 0 Tlb_page_evict: 217
Tlb_tot_valiate: 12006 Tlb_invalidate: 5988, Tlb_tot_evict: 0, Tlb_tot_evict page: 5988
========================================TLB statistics(thrashing)==============================
Shader0: Total 0
Shader1: Total 0
Shader2: Total 0
Shader3: Total 0
Shader4: Total 0
Shader5: Total 0
Shader6: Total 0
Shader7: Total 0
Shader8: Total 0
Shader9: Total 0
Shader10: Total 0
Shader11: Total 0
Shader12: Total 0
Shader13: Total 0
Shader14: Total 0
Shader15: Total 0
Shader16: Total 0
Shader17: Total 0
Shader18: Total 0
Shader19: Total 0
Shader20: Total 0
Shader21: Total 0
Shader22: Total 0
Shader23: Total 0
Shader24: Total 0
Shader25: Total 0
Shader26: Total 0
Shader27: Total 0
Tlb_tot_thrash: 0
========================================Page fault statistics==============================
Shader0: Page_table_access:2664 Page_hit: 2112 Page_miss: 552 Page_hit_rate: 0.792793
Shader1: Page_table_access:2699 Page_hit: 2099 Page_miss: 600 Page_hit_rate: 0.777695
Shader2: Page_table_access:2608 Page_hit: 2104 Page_miss: 504 Page_hit_rate: 0.806748
Shader3: Page_table_access:2716 Page_hit: 2140 Page_miss: 576 Page_hit_rate: 0.787923
Shader4: Page_table_access:2715 Page_hit: 2187 Page_miss: 528 Page_hit_rate: 0.805525
Shader5: Page_table_access:2704 Page_hit: 2104 Page_miss: 600 Page_hit_rate: 0.778107
Shader6: Page_table_access:2693 Page_hit: 2117 Page_miss: 576 Page_hit_rate: 0.786112
Shader7: Page_table_access:2804 Page_hit: 2180 Page_miss: 624 Page_hit_rate: 0.777461
Shader8: Page_table_access:2678 Page_hit: 2054 Page_miss: 624 Page_hit_rate: 0.766990
Shader9: Page_table_access:2662 Page_hit: 2062 Page_miss: 600 Page_hit_rate: 0.774606
Shader10: Page_table_access:2678 Page_hit: 2102 Page_miss: 576 Page_hit_rate: 0.784914
Shader11: Page_table_access:2768 Page_hit: 2144 Page_miss: 624 Page_hit_rate: 0.774566
Shader12: Page_table_access:2575 Page_hit: 1999 Page_miss: 576 Page_hit_rate: 0.776311
Shader13: Page_table_access:2555 Page_hit: 1955 Page_miss: 600 Page_hit_rate: 0.765166
Shader14: Page_table_access:2585 Page_hit: 2033 Page_miss: 552 Page_hit_rate: 0.786460
Shader15: Page_table_access:2670 Page_hit: 2070 Page_miss: 600 Page_hit_rate: 0.775281
Shader16: Page_table_access:2646 Page_hit: 2070 Page_miss: 576 Page_hit_rate: 0.782313
Shader17: Page_table_access:2670 Page_hit: 2118 Page_miss: 552 Page_hit_rate: 0.793258
Shader18: Page_table_access:2825 Page_hit: 2129 Page_miss: 696 Page_hit_rate: 0.753628
Shader19: Page_table_access:2623 Page_hit: 1999 Page_miss: 624 Page_hit_rate: 0.762104
Shader20: Page_table_access:2582 Page_hit: 1982 Page_miss: 600 Page_hit_rate: 0.767622
Shader21: Page_table_access:2739 Page_hit: 2115 Page_miss: 624 Page_hit_rate: 0.772180
Shader22: Page_table_access:2720 Page_hit: 2096 Page_miss: 624 Page_hit_rate: 0.770588
Shader23: Page_table_access:2726 Page_hit: 2102 Page_miss: 624 Page_hit_rate: 0.771093
Shader24: Page_table_access:2725 Page_hit: 2053 Page_miss: 672 Page_hit_rate: 0.753394
Shader25: Page_table_access:2595 Page_hit: 2091 Page_miss: 504 Page_hit_rate: 0.805780
Shader26: Page_table_access:2546 Page_hit: 2018 Page_miss: 528 Page_hit_rate: 0.792616
Shader27: Page_table_access:2792 Page_hit: 2168 Page_miss: 624 Page_hit_rate: 0.776504
Page_table_tot_access: 74963 Page_tot_hit: 58403, Page_tot_miss 16560, Page_tot_hit_rate: 0.779091 Page_tot_fault: 42 Page_tot_pending: 16518
Total_memory_access_page_fault: 42, Average_latency: 764916.562500
========================================Page thrashing statistics==============================
Page_validate: 3072 Page_evict_dirty: 0 Page_evict_not_dirty: 512
Page_tot_thrash: 0
========================================Memory access statistics==============================
========================================Prefetch statistics==============================
Tot_page_hit: 0, Tot_page_miss: 0, Tot_page_fault: 0
Avg_page_latency: 0.000000, Avg_prefetch_size: -nan, Avg_prefetch_latency: 0.000000
========================================Rdma statistics==============================
dma_read: 0
dma_migration_read 0
dma_migration_write 0
========================================PCI-e statistics==============================
Pcie_read_utilization: 0.689132
[0-25]: 0.046498, [26-50]: 0.019662, [51-75]: 0.933840, [76-100]: 0.000000
Pcie_write_utilization: 0.748640
[0-25]: 0.000000, [26-50]: 0.000000, [51-75]: 1.000000, [76-100]: 0.000000
F:   222150----T:  1833864 	 	 	 Kl: 1 	 Sm: 0 	 T: kernel_launch(1088.260620)
F:   223124----T:   226554 	 St: c0000000 Sz: 16384 	 Sm: 0 	 T: memcpy_h2d(2.316003)
F:   226554----T:   233419 	 St: c0004000 Sz: 49152 	 Sm: 0 	 T: memcpy_h2d(4.635382)
F:   233419----T:   236219 	 St: c0010000 Sz: 8192 	 Sm: 0 	 T: memcpy_h2d(1.890614)
F:   236219----T:   243999 	 St: c0012000 Sz: 57344 	 Sm: 0 	 T: memcpy_h2d(5.253207)
F:   243999----T:   247429 	 St: c0400000 Sz: 16384 	 Sm: 0 	 T: memcpy_h2d(2.316003)
F:   247429----T:   254294 	 St: c0404000 Sz: 49152 	 Sm: 0 	 T: memcpy_h2d(4.635382)
F:   254294----T:   257094 	 St: c0410000 Sz: 8192 	 Sm: 0 	 T: memcpy_h2d(1.890614)
F:   257094----T:   264874 	 St: c0412000 Sz: 57344 	 Sm: 0 	 T: memcpy_h2d(5.253207)
F:   264874----T:   268686 	 St: c0020000 Sz: 20480 	 Sm: 0 	 T: memcpy_h2d(2.573936)
F:   268686----T:   282508 	 St: c0025000 Sz: 110592 	 Sm: 0 	 T: memcpy_h2d(9.332883)
F:   282508----T:   285308 	 St: c0420000 Sz: 8192 	 Sm: 0 	 T: memcpy_h2d(1.890614)
F:   285308----T:   288394 	 St: c0422000 Sz: 12288 	 Sm: 0 	 T: memcpy_h2d(2.083727)
F:   288394----T:   302216 	 St: c0425000 Sz: 110592 	 Sm: 0 	 T: memcpy_h2d(9.332883)
F:   302216----T:   305302 	 St: c0800000 Sz: 12288 	 Sm: 0 	 T: memcpy_h2d(2.083727)
F:   305302----T:   312624 	 St: c0803000 Sz: 53248 	 Sm: 0 	 T: memcpy_h2d(4.943957)
F:   312624----T:   315229 	 St: c0810000 Sz: 4096 	 Sm: 0 	 T: memcpy_h2d(1.758947)
F:   315229----T:   317834 	 St: c0811000 Sz: 4096 	 Sm: 0 	 T: memcpy_h2d(1.758947)
F:   317834----T:   325614 	 St: c0812000 Sz: 57344 	 Sm: 0 	 T: memcpy_h2d(5.253207)
F:   325614----T:   328219 	 St: c0820000 Sz: 4096 	 Sm: 0 	 T: memcpy_h2d(1.758947)
F:   328219----T:   330824 	 St: c0821000 Sz: 4096 	 Sm: 0 	 T: memcpy_h2d(1.758947)
F:   330824----T:   346050 	 St: c0822000 Sz: 122880 	 Sm: 0 	 T: memcpy_h2d(10.280891)
F:   346349----T:   350568 	 St: c0040000 Sz: 24576 	 Sm: 0 	 T: memcpy_h2d(2.848751)
F:   350568----T:   378940 	 St: c0046000 Sz: 237568 	 Sm: 0 	 T: memcpy_h2d(19.157326)
F:   378940----T:   383159 	 St: c0440000 Sz: 24576 	 Sm: 0 	 T: memcpy_h2d(2.848751)
F:   383159----T:   411531 	 St: c0446000 Sz: 237568 	 Sm: 0 	 T: memcpy_h2d(19.157326)
F:   411531----T:   414136 	 St: c0840000 Sz: 4096 	 Sm: 0 	 T: memcpy_h2d(1.758947)
F:   414136----T:   416741 	 St: c0841000 Sz: 4096 	 Sm: 0 	 T: memcpy_h2d(1.758947)
F:   416741----T:   419346 	 St: c0842000 Sz: 4096 	 Sm: 0 	 T: memcpy_h2d(1.758947)
F:   419346----T:   449129 	 St: c0843000 Sz: 249856 	 Sm: 0 	 T: memcpy_h2d(20.110062)
F:   449885----T:   452490 	 St: c0080000 Sz: 4096 	 Sm: 0 	 T: memcpy_h2d(1.758947)
F:   452490----T:   513326 	 St: c0081000 Sz: 520192 	 Sm: 0 	 T: memcpy_h2d(41.077652)
F:   513326----T:   515931 	 St: c0480000 Sz: 4096 	 Sm: 0 	 T: memcpy_h2d(1.758947)
F:   515931----T:   576767 	 St: c0481000 Sz: 520192 	 Sm: 0 	 T: memcpy_h2d(41.077652)
F:   576767----T:   579372 	 St: c0880000 Sz: 4096 	 Sm: 0 	 T: memcpy_h2d(1.758947)
F:   579372----T:   640208 	 St: c0881000 Sz: 520192 	 Sm: 0 	 T: memcpy_h2d(41.077652)
F:   646029----T:   648829 	 St: c0100000 Sz: 8192 	 Sm: 0 	 T: memcpy_h2d(1.890614)
F:   648829----T:   769447 	 St: c0102000 Sz: 1040384 	 Sm: 0 	 T: memcpy_h2d(81.443619)
F:   769447----T:   772247 	 St: c0500000 Sz: 8192 	 Sm: 0 	 T: memcpy_h2d(1.890614)
F:   772247----T:   892865 	 St: c0502000 Sz: 1040384 	 Sm: 0 	 T: memcpy_h2d(81.443619)
F:   892865----T:   895470 	 St: c0900000 Sz: 4096 	 Sm: 0 	 T: memcpy_h2d(1.758947)
F:   895470----T:   898075 	 St: c0901000 Sz: 4096 	 Sm: 0 	 T: memcpy_h2d(1.758947)
F:   898075----T:  1018693 	 St: c0902000 Sz: 1040384 	 Sm: 0 	 T: memcpy_h2d(81.443619)
F:  1031606----T:  1034211 	 St: c0200000 Sz: 4096 	 Sm: 0 	 T: memcpy_h2d(1.758947)
F:  1034211----T:  1042451 	 St: c0201000 Sz: 61440 	 Sm: 0 	 T: memcpy_h2d(5.563808)
F:  1042451----T:  1045056 	 St: c0600000 Sz: 4096 	 Sm: 0 	 T: memcpy_h2d(1.758947)
F:  1045056----T:  1053296 	 St: c0601000 Sz: 61440 	 Sm: 0 	 T: memcpy_h2d(5.563808)
F:  1053296----T:  1055901 	 St: c0a00000 Sz: 4096 	 Sm: 0 	 T: memcpy_h2d(1.758947)
F:  1055901----T:  1064141 	 St: c0a01000 Sz: 61440 	 Sm: 0 	 T: memcpy_h2d(5.563808)
F:  1064586----T:  1069227 	 St: c0210000 Sz: 28672 	 Sm: 0 	 T: memcpy_h2d(3.133693)
F:  1069227----T:  1074742 	 St: c0217000 Sz: 36864 	 Sm: 0 	 T: memcpy_h2d(3.723835)
F:  1074742----T:  1079383 	 St: c0610000 Sz: 28672 	 Sm: 0 	 T: memcpy_h2d(3.133693)
F:  1079383----T:  1084898 	 St: c0617000 Sz: 36864 	 Sm: 0 	 T: memcpy_h2d(3.723835)
F:  1084898----T:  1087503 	 St: c0220000 Sz: 4096 	 Sm: 0 	 T: memcpy_h2d(1.758947)
F:  1087503----T:  1103198 	 St: c0221000 Sz: 126976 	 Sm: 0 	 T: memcpy_h2d(10.597569)
F:  1103198----T:  1105803 	 St: c0620000 Sz: 4096 	 Sm: 0 	 T: memcpy_h2d(1.758947)
F:  1105803----T:  1121498 	 St: c0621000 Sz: 126976 	 Sm: 0 	 T: memcpy_h2d(10.597569)
F:  1121498----T:  1124103 	 St: c0a10000 Sz: 4096 	 Sm: 0 	 T: memcpy_h2d(1.758947)
F:  1124103----T:  1132343 	 St: c0a11000 Sz: 61440 	 Sm: 0 	 T: memcpy_h2d(5.563808)
F:  1132343----T:  1134948 	 St: c0a20000 Sz: 4096 	 Sm: 0 	 T: memcpy_h2d(1.758947)
F:  1134948----T:  1150643 	 St: c0a21000 Sz: 126976 	 Sm: 0 	 T: memcpy_h2d(10.597569)
F:  1150934----T:  1153539 	 St: c0240000 Sz: 4096 	 Sm: 0 	 T: memcpy_h2d(1.758947)
F:  1153539----T:  1184262 	 St: c0241000 Sz: 258048 	 Sm: 0 	 T: memcpy_h2d(20.744766)
F:  1184262----T:  1186867 	 St: c0640000 Sz: 4096 	 Sm: 0 	 T: memcpy_h2d(1.758947)
F:  1186867----T:  1217590 	 St: c0641000 Sz: 258048 	 Sm: 0 	 T: memcpy_h2d(20.744766)
F:  1217590----T:  1220195 	 St: c0a40000 Sz: 4096 	 Sm: 0 	 T: memcpy_h2d(1.758947)
F:  1220195----T:  1250918 	 St: c0a41000 Sz: 258048 	 Sm: 0 	 T: memcpy_h2d(20.744766)
F:  1251754----T:  1254359 	 St: c0280000 Sz: 4096 	 Sm: 0 	 T: memcpy_h2d(1.758947)
F:  1254359----T:  1315195 	 St: c0281000 Sz: 520192 	 Sm: 0 	 T: memcpy_h2d(41.077652)
F:  1315195----T:  1317800 	 St: c0680000 Sz: 4096 	 Sm: 0 	 T: memcpy_h2d(1.758947)
F:  1317800----T:  1378636 	 St: c0681000 Sz: 520192 	 Sm: 0 	 T: memcpy_h2d(41.077652)
F:  1378636----T:  1381241 	 St: c0a80000 Sz: 4096 	 Sm: 0 	 T: memcpy_h2d(1.758947)
F:  1381241----T:  1442077 	 St: c0a81000 Sz: 520192 	 Sm: 0 	 T: memcpy_h2d(41.077652)
F:  1448004----T:  1450609 	 St: c0300000 Sz: 4096 	 Sm: 0 	 T: memcpy_h2d(1.758947)
F:  1448018----T:  1690098 	 St: c0000000 Sz: 2097152 	 Sm: 0 	 T: write_back(163.457123)
F:  1450609----T:  1571698 	 St: c0301000 Sz: 1044480 	 Sm: 0 	 T: memcpy_h2d(81.761650)
F:  1571698----T:  1574303 	 St: c0700000 Sz: 4096 	 Sm: 0 	 T: memcpy_h2d(1.758947)
F:  1574303----T:  1695392 	 St: c0701000 Sz: 1044480 	 Sm: 0 	 T: memcpy_h2d(81.761650)
F:  1695392----T:  1697997 	 St: c0b00000 Sz: 4096 	 Sm: 0 	 T: memcpy_h2d(1.758947)
F:  1697997----T:  1819086 	 St: c0b01000 Sz: 1044480 	 Sm: 0 	 T: memcpy_h2d(81.761650)
F:  1833864----T:  1836469 	 St: 0 Sz: 4096 	 Sm: 0 	 T: device_sync(1.758947)
F:  1833864----T:  1842104 	 St: 0 Sz: 61440 	 Sm: 0 	 T: device_sync(5.563808)
F:  1844709----T:  1847314 	 St: 0 Sz: 4096 	 Sm: 0 	 T: device_sync(1.758947)
F:  1844709----T:  1852949 	 St: 0 Sz: 61440 	 Sm: 0 	 T: device_sync(5.563808)
F:  1855554----T:  1858159 	 St: 0 Sz: 4096 	 Sm: 0 	 T: device_sync(1.758947)
F:  1855554----T:  1871249 	 St: 0 Sz: 126976 	 Sm: 0 	 T: device_sync(10.597569)
F:  1873854----T:  1876459 	 St: 0 Sz: 4096 	 Sm: 0 	 T: device_sync(1.758947)
F:  1873854----T:  1904577 	 St: 0 Sz: 258048 	 Sm: 0 	 T: device_sync(20.744766)
F:  1907182----T:  1909787 	 St: 0 Sz: 4096 	 Sm: 0 	 T: device_sync(1.758947)
F:  1907182----T:  1968018 	 St: 0 Sz: 520192 	 Sm: 0 	 T: device_sync(41.077652)
F:  1970623----T:  1973228 	 St: 0 Sz: 4096 	 Sm: 0 	 T: device_sync(1.758947)
F:  1970623----T:  2091712 	 St: 0 Sz: 1044480 	 Sm: 0 	 T: device_sync(81.761650)
F:  2094317----T:  2096922 	 St: 0 Sz: 4096 	 Sm: 0 	 T: device_sync(1.758947)
F:  2094317----T:  2102557 	 St: 0 Sz: 61440 	 Sm: 0 	 T: device_sync(5.563808)
F:  2105162----T:  2107767 	 St: 0 Sz: 4096 	 Sm: 0 	 T: device_sync(1.758947)
F:  2105162----T:  2113402 	 St: 0 Sz: 61440 	 Sm: 0 	 T: device_sync(5.563808)
F:  2116007----T:  2118612 	 St: 0 Sz: 4096 	 Sm: 0 	 T: device_sync(1.758947)
F:  2116007----T:  2131702 	 St: 0 Sz: 126976 	 Sm: 0 	 T: device_sync(10.597569)
F:  2134307----T:  2136912 	 St: 0 Sz: 4096 	 Sm: 0 	 T: device_sync(1.758947)
F:  2134307----T:  2165030 	 St: 0 Sz: 258048 	 Sm: 0 	 T: device_sync(20.744766)
F:  2167635----T:  2170240 	 St: 0 Sz: 4096 	 Sm: 0 	 T: device_sync(1.758947)
F:  2167635----T:  2228471 	 St: 0 Sz: 520192 	 Sm: 0 	 T: device_sync(41.077652)
F:  2231076----T:  2233681 	 St: 0 Sz: 4096 	 Sm: 0 	 T: device_sync(1.758947)
F:  2231076----T:  2352165 	 St: 0 Sz: 1044480 	 Sm: 0 	 T: device_sync(81.761650)
Tot_prefetch_time: 0(cycle), 0.000000(us)
Tot_kernel_exec_time: 1611714(cycle), 1088.260620(us)
Tot_kernel_exec_time_and_fault_time: 4410804(cycle), 2978.260742(us)
Tot_memcpy_h2d_time: 1568674(cycle), 1059.199219(us)
Tot_memcpy_d2h_time: 0(cycle), 0.000000(us)
Tot_memcpy_time: 1568674(cycle), 1059.199219(us)
Tot_devicesync_time: 520906(cycle), 351.725861(us)
Tot_writeback_time: 242080(cycle), 163.457123(us)
Tot_dma_time: 0(cycle), 0.000000(us)
Tot_memcpy_d2h_sync_wb_time: 762986(cycle), 515.182983(us)
GPGPU-Sim: *** exit detected ***
