

        *** GPGPU-Sim Simulator Version 3.2.2  [build gpgpu-sim_git-commit-19dcacd83a954f67f20a2e1f31b081ed5ddcd3ae_modified_1 1 benchmarks/Managed/backprop/run 1 1 benchmarks/Managed/srad_v2/run 1 1 benchmarks/Managed/stencil/run 3 3 configs/GeForceGTX1080Ti/gpgpusim.config 5 3 src/gpgpu-sim/gpu-sim.cc 2 2 src/gpgpusim_entrypoint.cc 0] ***


GPGPU-Sim PTX: simulation mode 0 (can change with PTX_SIM_MODE_FUNC environment variable:
               1=functional simulation only, 0=detailed performance simulator)
GPGPU-Sim: Configuration options:

-network_mode                           1 # Interconnection network mode
-inter_config_file   config_fermi_islip.icnt # Interconnection network config file
-gpgpu_ptx_use_cuobjdump                    1 # Use cuobjdump to extract ptx and sass from binaries
-gpgpu_experimental_lib_support                    0 # Try to extract code from cuda libraries [Broken because of unknown cudaGetExportTable]
-gpgpu_ptx_convert_to_ptxplus                    0 # Convert SASS (native ISA) to ptxplus and run ptxplus
-gpgpu_ptx_force_max_capability                   20 # Force maximum compute capability
-gpgpu_ptx_inst_debug_to_file                    0 # Dump executed instructions' debug information to file
-gpgpu_ptx_inst_debug_file       inst_debug.txt # Executed instructions' debug output file
-gpgpu_ptx_inst_debug_thread_uid                    1 # Thread UID for executed instructions' debug output
-gpgpu_simd_model                       1 # 1 = post-dominator
-gpgpu_shader_core_pipeline              2048:32 # shader core pipeline config, i.e., {<nthread>:<warpsize>}
-gpgpu_tex_cache:l1  16:128:24,L:R:m:N:L,F:128:4,128:2 # per-shader L1 texture cache  (READ-ONLY) config  {<nsets>:<bsize>:<assoc>,<rep>:<wr>:<alloc>:<wr_alloc>,<mshr>:<N>:<merge>,<mq>:<rf>}
-gpgpu_const_cache:l1 128:64:2,L:R:f:N:L,A:2:64,4 # per-shader L1 constant memory cache  (READ-ONLY) config  {<nsets>:<bsize>:<assoc>,<rep>:<wr>:<alloc>:<wr_alloc>,<mshr>:<N>:<merge>,<mq>} 
-gpgpu_cache:il1     8:128:4,L:R:f:N:L,A:2:48,4 # shader L1 instruction cache config  {<nsets>:<bsize>:<assoc>,<rep>:<wr>:<alloc>:<wr_alloc>,<mshr>:<N>:<merge>,<mq>} 
-gpgpu_cache:dl1     64:128:6,L:L:m:N:H,A:128:8,8 # per-shader L1 data cache config  {<nsets>:<bsize>:<assoc>,<rep>:<wr>:<alloc>:<wr_alloc>,<mshr>:<N>:<merge>,<mq> | none}
-gpgpu_cache:dl1PrefL1                 none # per-shader L1 data cache config  {<nsets>:<bsize>:<assoc>,<rep>:<wr>:<alloc>:<wr_alloc>,<mshr>:<N>:<merge>,<mq> | none}
-gpgpu_cache:dl1PrefShared                 none # per-shader L1 data cache config  {<nsets>:<bsize>:<assoc>,<rep>:<wr>:<alloc>:<wr_alloc>,<mshr>:<N>:<merge>,<mq> | none}
-gmem_skip_L1D                          1 # global memory access skip L1D cache (implements -Xptxas -dlcm=cg, default=no skip)
-gpgpu_perfect_mem                      0 # enable perfect memory mode (no cache miss)
-n_regfile_gating_group                    4 # group of lanes that should be read/written together)
-gpgpu_clock_gated_reg_file                    0 # enable clock gated reg file for power calculations
-gpgpu_clock_gated_lanes                    0 # enable clock gated lanes for power calculations
-gpgpu_shader_registers                65536 # Number of registers per shader core. Limits number of concurrent CTAs. (default 8192)
-gpgpu_shader_cta                      32 # Maximum number of concurrent CTAs in shader (default 8)
-gpgpu_num_cta_barriers                   16 # Maximum number of named barriers per CTA (default 16)
-gpgpu_n_clusters                      28 # number of processing clusters
-gpgpu_n_cores_per_cluster                    1 # number of simd cores per cluster
-gpgpu_n_cluster_ejection_buffer_size                    8 # number of packets in ejection buffer
-gpgpu_n_ldst_response_buffer_size                    2 # number of response packets in ld/st unit ejection buffer
-gpgpu_shmem_size                   16384 # Size of shared memory per shader core (default 16kB)
-gpgpu_shmem_size                   98304 # Size of shared memory per shader core (default 16kB)
-gpgpu_shmem_size_PrefL1                16384 # Size of shared memory per shader core (default 16kB)
-gpgpu_shmem_size_PrefShared                16384 # Size of shared memory per shader core (default 16kB)
-gpgpu_shmem_num_banks                   32 # Number of banks in the shared memory in each shader core (default 16)
-gpgpu_shmem_limited_broadcast                    0 # Limit shared memory to do one broadcast per cycle (default on)
-gpgpu_shmem_warp_parts                    1 # Number of portions a warp is divided into for shared memory bank conflict check 
-gpgpu_warpdistro_shader                   -1 # Specify which shader core to collect the warp size distribution from
-gpgpu_warp_issue_shader                    0 # Specify which shader core to collect the warp issue distribution from
-gpgpu_local_mem_map                    1 # Mapping from local memory space address to simulated GPU physical address space (default = enabled)
-gpgpu_num_reg_banks                   32 # Number of register banks (default = 8)
-gpgpu_reg_bank_use_warp_id                    0 # Use warp ID in mapping registers to banks (default = off)
-gpgpu_operand_collector_num_units_sp                   20 # number of collector units (default = 4)
-gpgpu_operand_collector_num_units_sfu                    4 # number of collector units (default = 4)
-gpgpu_operand_collector_num_units_mem                    8 # number of collector units (default = 2)
-gpgpu_operand_collector_num_units_gen                    0 # number of collector units (default = 0)
-gpgpu_operand_collector_num_in_ports_sp                    4 # number of collector unit in ports (default = 1)
-gpgpu_operand_collector_num_in_ports_sfu                    1 # number of collector unit in ports (default = 1)
-gpgpu_operand_collector_num_in_ports_mem                    1 # number of collector unit in ports (default = 1)
-gpgpu_operand_collector_num_in_ports_gen                    0 # number of collector unit in ports (default = 0)
-gpgpu_operand_collector_num_out_ports_sp                    4 # number of collector unit in ports (default = 1)
-gpgpu_operand_collector_num_out_ports_sfu                    1 # number of collector unit in ports (default = 1)
-gpgpu_operand_collector_num_out_ports_mem                    1 # number of collector unit in ports (default = 1)
-gpgpu_operand_collector_num_out_ports_gen                    0 # number of collector unit in ports (default = 0)
-gpgpu_coalesce_arch                   13 # Coalescing arch (default = 13, anything else is off for now)
-gpgpu_num_sched_per_core                    2 # Number of warp schedulers per core
-gpgpu_max_insn_issue_per_warp                    2 # Max number of instructions that can be issued per warp in one cycle by scheduler
-gpgpu_simt_core_sim_order                    1 # Select the simulation order of cores in a cluster (0=Fix, 1=Round-Robin)
-gpgpu_pipeline_widths        4,1,1,4,1,1,6 # Pipeline widths ID_OC_SP,ID_OC_SFU,ID_OC_MEM,OC_EX_SP,OC_EX_SFU,OC_EX_MEM,EX_WB
-gpgpu_num_sp_units                     4 # Number of SP units (default=1)
-gpgpu_num_sfu_units                    1 # Number of SF units (default=1)
-gpgpu_num_mem_units                    1 # Number if ldst units (default=1) WARNING: not hooked up to anything
-gpgpu_scheduler                      gto # Scheduler configuration: < lrr | gto | two_level_active > If two_level_active:<num_active_warps>:<inner_prioritization>:<outer_prioritization>For complete list of prioritization values see shader.h enum scheduler_prioritization_typeDefault: gto
-gpgpu_concurrent_kernel_sm                    0 # Support concurrent kernels on a SM (default = disabled)
-tlb_size                            4096 # Number of tlb entries per SM.
-gpgpu_dram_scheduler                    1 # 0 = fifo, 1 = FR-FCFS (defaul)
-gpgpu_dram_partition_queues              8:8:8:8 # i2$:$2d:d2$:$2i
-l2_ideal                               0 # Use a ideal L2 cache that always hit
-gpgpu_cache:dl2     64:128:16,L:B:m:W:L,A:1024:1024,4:0,32 # unified banked L2 data cache config  {<nsets>:<bsize>:<assoc>,<rep>:<wr>:<alloc>:<wr_alloc>,<mshr>:<N>:<merge>,<mq>}
-gpgpu_cache:dl2_texture_only                    0 # L2 cache used for texture only
-gpgpu_n_mem                           11 # number of memory modules (e.g. memory controllers) in gpu
-gpgpu_n_sub_partition_per_mchannel                    2 # number of memory subpartition in each memory module
-gpgpu_n_mem_per_ctrlr                    1 # number of memory chips per memory controller
-gpgpu_memlatency_stat                   14 # track and display latency statistics 0x2 enables MC, 0x4 enables queue logs
-gpgpu_frfcfs_dram_sched_queue_size                   64 # 0 = unlimited (default); # entries per chip
-gpgpu_dram_return_queue_size                  116 # 0 = unlimited (default); # entries per chip
-gpgpu_dram_buswidth                    4 # default = 4 bytes (8 bytes per cycle at DDR)
-gpgpu_dram_burst_length                    8 # Burst length of each DRAM request (default = 4 data bus cycle)
-dram_data_command_freq_ratio                    4 # Frequency ratio between DRAM data bus and command bus (default = 2 times, i.e. DDR)
-gpgpu_dram_timing_opt nbk=16:CCD=2:RRD=6:RCD=12:RAS=28:RP=12:RC=40: CL=12:WL=4:CDLR=5:WR=12:nbkgrp=1:CCDL=0:RTPL=0 # DRAM timing parameters = {nbk:tCCD:tRRD:tRCD:tRAS:tRP:tRC:CL:WL:tCDLR:tWR:nbkgrp:tCCDL:tRTPL}
-rop_latency                          120 # ROP queue latency (default 85)
-dram_latency                         100 # DRAM latency (default 30)
-gpgpu_mem_addr_mapping dramid@8;00000000.00000000.00000000.00000000.0000RRRR.RRRRRRRR.RBBBCCCC.BCCSSSSS # mapping memory address to dram model {dramid@<start bit>;<memory address map>}
-gpgpu_mem_addr_test                    0 # run sweep test to check address mapping for aliased address
-gpgpu_mem_address_mask                    1 # 0 = old addressing mask, 1 = new addressing mask, 2 = new add. mask + flipped bank sel and chip sel bits
-gpuwattch_xml_file  gpuwattch_geforcegtx1080ti.xml # GPUWattch XML file
-power_simulation_enabled                    1 # Turn on power simulator (1=On, 0=Off)
-power_per_cycle_dump                    0 # Dump detailed power output each cycle
-power_trace_enabled                    0 # produce a file for the power trace (1=On, 0=Off)
-power_trace_zlevel                     6 # Compression level of the power trace output log (0=no comp, 9=highest)
-steady_power_levels_enabled                    0 # produce a file for the steady power levels (1=On, 0=Off)
-steady_state_definition                  8:4 # allowed deviation:number of samples
-gpgpu_max_cycle                        0 # terminates gpu simulation early (0 = no limit)
-gpgpu_max_insn                         0 # terminates gpu simulation early (0 = no limit)
-gpgpu_max_cta                          0 # terminates gpu simulation early (0 = no limit)
-gpgpu_runtime_stat                   500 # display runtime statistics such as dram utilization {<freq>:<flag>}
-liveness_message_freq                    1 # Minimum number of seconds between simulation liveness messages (0 = always print)
-gpgpu_flush_l1_cache                    0 # Flush L1 cache at the end of each kernel call
-gpgpu_flush_l2_cache                    0 # Flush L2 cache at the end of each kernel call
-gpgpu_deadlock_detect                    0 # Stop the simulation at deadlock (1=on (default), 0=off)
-gpgpu_ptx_instruction_classification                    0 # if enabled will classify ptx instruction types per kernel (Max 255 kernels now)
-gpgpu_ptx_sim_mode                     0 # Select between Performance (default) or Functional simulation (1)
-gpgpu_clock_domains 1481.0:2962.0:1481.0:2750.0 # Clock Domain Frequencies in MhZ {<Core Clock>:<ICNT Clock>:<L2 Clock>:<DRAM Clock>}
-gpgpu_max_concurrent_kernel                    8 # maximum kernels that can run concurrently on GPU
-gpgpu_cflog_interval                    0 # Interval between each snapshot in control flow logger
-visualizer_enabled                     0 # Turn on visualizer output (1=On, 0=Off)
-visualizer_outputfile                 NULL # Specifies the output log file for visualizer
-visualizer_zlevel                      6 # Compression level of the visualizer output log (0=no comp, 9=highest)
-trace_enabled                          0 # Turn on traces
-trace_components                    none # comma seperated list of traces to enable. Complete list found in trace_streams.tup. Default none
-trace_sampling_core                    0 # The core which is printed using CORE_DPRINTF. Default 0
-trace_sampling_memory_partition                   -1 # The memory partition which is printed using MEMPART_DPRINTF. Default -1 (i.e. all)
-gddr_size                            1GB # Size of GDDR in MB/GB.(GLOBAL_HEAP_START, GLOBAL_HEAP_START + gddr_size) would be used for unmanged memory, (GLOBAL_HEAP_START + gddr_size, GLOBAL_HEAP_START + gddr_size*2) would be used for managed memory. 
-page_table_walk_latency                   66 # Average page table walk latency (in core cycle).
-eviction_policy                      lru # Memory eviction policy: lru or random.
-percentage_of_free_page_buffer                    0 # Percentage of free page buffer to trigger the page eviction.
-page_size                            2MB # GDDR page size, only 4KB/2MB avaliable.
-pcie_bandwith                   16.0GB/s # PCI-e bandwith per direction, in GB/s.
-sim_prof_enable                        1 # Enable gpgpu-sim profiler
-hardware_prefetch                      0 # Enable gpgpu-sim hardware prefetcher
-page_fault_latency                 66645 # Average fault latency (in core cycle).
-enable_accurate_simulation                    0 # Enable page fault functional simulation.
-enable_ptx_file_line_stats                    1 # Turn on PTX source line statistic profiling. (1 = On)
-ptx_line_stats_filename gpgpu_inst_stats.txt # Output file for PTX source line statistics.
-gpgpu_kernel_launch_latency               222150 # Kernel launch latency in cycles. Default: 0
-gpgpu_cdp_enabled                      0 # Turn on CDP
-save_embedded_ptx                      0 # saves ptx files embedded in binary as <n>.ptx
-keep                                   0 # keep intermediate files created by GPGPU-Sim when interfacing with external programs
-gpgpu_ptx_save_converted_ptxplus                    0 # Saved converted ptxplus to a file
-ptx_opcode_latency_int         4,13,4,5,145 # Opcode latencies for integers <ADD,MAX,MUL,MAD,DIV>Default 1,1,19,25,145
-ptx_opcode_latency_fp          4,13,4,5,39 # Opcode latencies for single precision floating points <ADD,MAX,MUL,MAD,DIV>Default 1,1,1,1,30
-ptx_opcode_latency_dp         8,19,8,8,330 # Opcode latencies for double precision floating points <ADD,MAX,MUL,MAD,DIV>Default 8,8,8,8,335
-ptx_opcode_initiation_int            1,2,2,2,8 # Opcode initiation intervals for integers <ADD,MAX,MUL,MAD,DIV>Default 1,1,4,4,32
-ptx_opcode_initiation_fp            1,2,1,1,4 # Opcode initiation intervals for single precision floating points <ADD,MAX,MUL,MAD,DIV>Default 1,1,1,1,5
-ptx_opcode_initiation_dp          1,2,1,1,130 # Opcode initiation intervals for double precision floating points <ADD,MAX,MUL,MAD,DIV>Default 8,8,8,8,130
-cdp_latency         7200,8000,100,12000,1600 # CDP API latency <cudaStreamCreateWithFlags, cudaGetParameterBufferV2_init_perWarp, cudaGetParameterBufferV2_perKernel, cudaLaunchDeviceV2_init_perWarp, cudaLaunchDevicV2_perKernel>Default 7200,8000,100,12000,1600
DRAM Timing Options:
nbk                                    16 # number of banks
CCD                                     2 # column to column delay
RRD                                     6 # minimal delay between activation of rows in different banks
RCD                                    12 # row to column delay
RAS                                    28 # time needed to activate row
RP                                     12 # time needed to precharge (deactivate) row
RC                                     40 # row cycle time
CDLR                                    5 # switching from write to read (changes tWTR)
WR                                     12 # last data-in to row precharge
CL                                     12 # CAS latency
WL                                      4 # Write latency
nbkgrp                                  1 # number of bank groups
CCDL                                    0 # column to column delay between accesses to different bank groups
RTPL                                    0 # read to precharge delay between accesses to different bank groups
Total number of memory sub partition = 22
addr_dec_mask[CHIP]  = 0000000000000000 	high:64 low:0
addr_dec_mask[BK]    = 0000000000007080 	high:15 low:7
addr_dec_mask[ROW]   = 000000000fff8000 	high:28 low:15
addr_dec_mask[COL]   = 0000000000000f7f 	high:12 low:0
addr_dec_mask[BURST] = 000000000000001f 	high:5 low:0
sub_partition_id_mask = 0000000000000080
GPGPU-Sim uArch: clock freqs: 1481000000.000000:2962000000.000000:1481000000.000000:2750000000.000000
GPGPU-Sim uArch: clock periods: 0.00000000067521944632:0.00000000033760972316:0.00000000067521944632:0.00000000036363636364
*** Initializing Memory Statistics ***
GPGPU-Sim uArch: interconnect node map (shaderID+MemID to icntID)
GPGPU-Sim uArch: Memory nodes ID start from index: 28
GPGPU-Sim uArch:    0   1   2   3   4   5   6
GPGPU-Sim uArch:    7   8   9  10  11  12  13
GPGPU-Sim uArch:   14  15  16  17  18  19  20
GPGPU-Sim uArch:   21  22  23  24  25  26  27
GPGPU-Sim uArch:   28  29  30  31  32  33  34
GPGPU-Sim uArch:   35  36  37  38  39  40  41
GPGPU-Sim uArch:   42  43  44  45  46  47  48
GPGPU-Sim uArch:   49
GPGPU-Sim uArch: interconnect node reverse map (icntID to shaderID+MemID)
GPGPU-Sim uArch: Memory nodes start from ID: 28
GPGPU-Sim uArch:    0   1   2   3   4   5   6
GPGPU-Sim uArch:    7   8   9  10  11  12  13
GPGPU-Sim uArch:   14  15  16  17  18  19  20
GPGPU-Sim uArch:   21  22  23  24  25  26  27
GPGPU-Sim uArch:   28  29  30  31  32  33  34
GPGPU-Sim uArch:   35  36  37  38  39  40  41
GPGPU-Sim uArch:   42  43  44  45  46  47  48
GPGPU-Sim uArch:   49
51c3d2140ffec39b752a5ee636a3fcec  /home/gpuser/Documents/gpgpu-sim_UVM_2MB/benchmarks/Managed/bfs/bfs
GPGPU-Sim uArch: performance model initialization complete.
GPGPU-Sim PTX: __cudaRegisterFatBinary, fat_cubin_handle = 1, filename=default
self exe links to: /home/gpuser/Documents/gpgpu-sim_UVM_2MB/benchmarks/Managed/bfs/bfs
Running md5sum using "md5sum /home/gpuser/Documents/gpgpu-sim_UVM_2MB/benchmarks/Managed/bfs/bfs "
Parsing file _cuobjdump_complete_output_kvDisZ
######### cuobjdump parser ########
## Adding new section ELF
Adding arch: sm_20
Adding identifier: default
## Adding new section ELF
Adding arch: sm_20
Adding identifier: default
## Adding new section PTX
Adding ptx filename: _cuobjdump_1.ptx
Adding arch: sm_20
Adding identifier: default
Done parsing!!!
GPGPU-Sim PTX: __cudaRegisterFunction _Z7Kernel2PbS_S_S_i : hostFun 0x0x401649, fat_cubin_handle = 1
GPGPU-Sim PTX: instruction assembly for function '_Z6KernelP4NodePiPbS2_S2_S1_i'...   done.
GPGPU-Sim PTX: finding reconvergence points for '_Z6KernelP4NodePiPbS2_S2_S1_i'...
GPGPU-Sim PTX: Finding dominators for '_Z6KernelP4NodePiPbS2_S2_S1_i'...
GPGPU-Sim PTX: Finding immediate dominators for '_Z6KernelP4NodePiPbS2_S2_S1_i'...
GPGPU-Sim PTX: Finding postdominators for '_Z6KernelP4NodePiPbS2_S2_S1_i'...
GPGPU-Sim PTX: Finding immediate postdominators for '_Z6KernelP4NodePiPbS2_S2_S1_i'...
GPGPU-Sim PTX: pre-decoding instructions for '_Z6KernelP4NodePiPbS2_S2_S1_i'...
GPGPU-Sim PTX: reconvergence points for _Z6KernelP4NodePiPbS2_S2_S1_i...
GPGPU-Sim PTX:  1 (potential) branch divergence @  PC=0x060 (_1.ptx:42) @%p1 bra BB0_7;
GPGPU-Sim PTX:    immediate post dominator      @  PC=0x1e8 (_1.ptx:101) ret;
GPGPU-Sim PTX:  2 (potential) branch divergence @  PC=0x090 (_1.ptx:49) @%p2 bra BB0_7;
GPGPU-Sim PTX:    immediate post dominator      @  PC=0x1e8 (_1.ptx:101) ret;
GPGPU-Sim PTX:  3 (potential) branch divergence @  PC=0x0d8 (_1.ptx:59) @%p3 bra BB0_7;
GPGPU-Sim PTX:    immediate post dominator      @  PC=0x1e8 (_1.ptx:101) ret;
GPGPU-Sim PTX:  4 (potential) branch divergence @  PC=0x160 (_1.ptx:79) @%p4 bra BB0_6;
GPGPU-Sim PTX:    immediate post dominator      @  PC=0x1b8 (_1.ptx:93) mov.u32 %r24, %r25;
GPGPU-Sim PTX:  5 (potential) branch divergence @  PC=0x1e0 (_1.ptx:98) @%p5 bra BB0_4;
GPGPU-Sim PTX:    immediate post dominator      @  PC=0x1e8 (_1.ptx:101) ret;
GPGPU-Sim PTX: ... end of reconvergence points for _Z6KernelP4NodePiPbS2_S2_S1_i
GPGPU-Sim PTX: ... done pre-decoding instructions for '_Z6KernelP4NodePiPbS2_S2_S1_i'.
GPGPU-Sim PTX: instruction assembly for function '_Z7Kernel2PbS_S_S_i'...   done.
GPGPU-Sim PTX: finding reconvergence points for '_Z7Kernel2PbS_S_S_i'...
GPGPU-Sim PTX: Finding dominators for '_Z7Kernel2PbS_S_S_i'...
GPGPU-Sim PTX: Finding immediate dominators for '_Z7Kernel2PbS_S_S_i'...
GPGPU-Sim PTX: Finding postdominators for '_Z7Kernel2PbS_S_S_i'...
GPGPU-Sim PTX: Finding immediate postdominators for '_Z7Kernel2PbS_S_S_i'...
GPGPU-Sim PTX: pre-decoding instructions for '_Z7Kernel2PbS_S_S_i'...
GPGPU-Sim PTX: reconvergence points for _Z7Kernel2PbS_S_S_i...
GPGPU-Sim PTX:  1 (potential) branch divergence @  PC=0x240 (_1.ptx:129) @%p1 bra BB1_3;
GPGPU-Sim PTX:    immediate post dominator      @  PC=0x2d0 (_1.ptx:151) ret;
GPGPU-Sim PTX:  2 (potential) branch divergence @  PC=0x270 (_1.ptx:136) @%p2 bra BB1_3;
GPGPU-Sim PTX:    immediate post dominator      @  PC=0x2d0 (_1.ptx:151) ret;
GPGPU-Sim PTX: ... end of reconvergence points for _Z7Kernel2PbS_S_S_i
GPGPU-Sim PTX: ... done pre-decoding instructions for '_Z7Kernel2PbS_S_S_i'.
GPGPU-Sim PTX: finished parsing EMBEDDED .ptx file _1.ptx
Adding _cuobjdump_1.ptx with cubin handle 1
GPGPU-Sim PTX: extracting embedded .ptx to temporary file "_ptx_RjtLOF"
Running: cat _ptx_RjtLOF | sed 's/.version 1.5/.version 1.4/' | sed 's/, texmode_independent//' | sed 's/\(\.extern \.const\[1\] .b8 \w\+\)\[\]/\1\[1\]/' | sed 's/const\[.\]/const\[0\]/g' > _ptx2_Nsefbm
GPGPU-Sim PTX: generating ptxinfo using "$CUDA_INSTALL_PATH/bin/ptxas --gpu-name=sm_20 -v _ptx2_Nsefbm --output-file  /dev/null 2> _ptx_RjtLOFinfo"
GPGPU-Sim PTX: Kernel '_Z7Kernel2PbS_S_S_i' : regs=12, lmem=0, smem=0, cmem=68
GPGPU-Sim PTX: Kernel '_Z6KernelP4NodePiPbS2_S2_S1_i' : regs=15, lmem=0, smem=0, cmem=84
GPGPU-Sim PTX: removing ptxinfo using "rm -f _ptx_RjtLOF _ptx2_Nsefbm _ptx_RjtLOFinfo"
GPGPU-Sim PTX: loading globals with explicit initializers... 
GPGPU-Sim PTX: finished loading globals (0 bytes total).
GPGPU-Sim PTX: loading constants with explicit initializers...  done.
GPGPU-Sim PTX: __cudaRegisterFunction _Z6KernelP4NodePiPbS2_S2_S1_i : hostFun 0x0x401519, fat_cubin_handle = 1
Reading File
Read File
Copied Everything to GPU memory
Start traversing the tree

GPGPU-Sim PTX: cudaLaunch for 0x0x401519 (mode=performance simulation) on stream 0
GPGPU-Sim PTX: pushing kernel '_Z6KernelP4NodePiPbS2_S2_S1_i' to stream 0, gridDim= (128,1,1) blockDim = (512,1,1) 
GPGPU-Sim uArch: Shader 1 bind to kernel 1 '_Z6KernelP4NodePiPbS2_S2_S1_i'
GPGPU-Sim uArch: CTA/core = 4, limited by: threads
GPGPU-Sim uArch: Shader 2 bind to kernel 1 '_Z6KernelP4NodePiPbS2_S2_S1_i'
GPGPU-Sim uArch: Shader 3 bind to kernel 1 '_Z6KernelP4NodePiPbS2_S2_S1_i'
GPGPU-Sim uArch: Shader 4 bind to kernel 1 '_Z6KernelP4NodePiPbS2_S2_S1_i'
GPGPU-Sim uArch: Shader 5 bind to kernel 1 '_Z6KernelP4NodePiPbS2_S2_S1_i'
GPGPU-Sim uArch: Shader 6 bind to kernel 1 '_Z6KernelP4NodePiPbS2_S2_S1_i'
GPGPU-Sim uArch: Shader 7 bind to kernel 1 '_Z6KernelP4NodePiPbS2_S2_S1_i'
GPGPU-Sim uArch: Shader 8 bind to kernel 1 '_Z6KernelP4NodePiPbS2_S2_S1_i'
GPGPU-Sim uArch: Shader 9 bind to kernel 1 '_Z6KernelP4NodePiPbS2_S2_S1_i'
GPGPU-Sim uArch: Shader 10 bind to kernel 1 '_Z6KernelP4NodePiPbS2_S2_S1_i'
GPGPU-Sim uArch: Shader 11 bind to kernel 1 '_Z6KernelP4NodePiPbS2_S2_S1_i'
GPGPU-Sim uArch: Shader 12 bind to kernel 1 '_Z6KernelP4NodePiPbS2_S2_S1_i'
GPGPU-Sim uArch: Shader 13 bind to kernel 1 '_Z6KernelP4NodePiPbS2_S2_S1_i'
GPGPU-Sim uArch: Shader 14 bind to kernel 1 '_Z6KernelP4NodePiPbS2_S2_S1_i'
GPGPU-Sim uArch: Shader 15 bind to kernel 1 '_Z6KernelP4NodePiPbS2_S2_S1_i'
GPGPU-Sim uArch: Shader 16 bind to kernel 1 '_Z6KernelP4NodePiPbS2_S2_S1_i'
GPGPU-Sim uArch: Shader 17 bind to kernel 1 '_Z6KernelP4NodePiPbS2_S2_S1_i'
GPGPU-Sim uArch: Shader 18 bind to kernel 1 '_Z6KernelP4NodePiPbS2_S2_S1_i'
GPGPU-Sim uArch: Shader 19 bind to kernel 1 '_Z6KernelP4NodePiPbS2_S2_S1_i'
GPGPU-Sim uArch: Shader 20 bind to kernel 1 '_Z6KernelP4NodePiPbS2_S2_S1_i'
GPGPU-Sim uArch: Shader 21 bind to kernel 1 '_Z6KernelP4NodePiPbS2_S2_S1_i'
GPGPU-Sim uArch: Shader 22 bind to kernel 1 '_Z6KernelP4NodePiPbS2_S2_S1_i'
GPGPU-Sim uArch: Shader 23 bind to kernel 1 '_Z6KernelP4NodePiPbS2_S2_S1_i'
GPGPU-Sim uArch: Shader 24 bind to kernel 1 '_Z6KernelP4NodePiPbS2_S2_S1_i'
GPGPU-Sim uArch: Shader 25 bind to kernel 1 '_Z6KernelP4NodePiPbS2_S2_S1_i'
GPGPU-Sim uArch: Shader 26 bind to kernel 1 '_Z6KernelP4NodePiPbS2_S2_S1_i'
GPGPU-Sim uArch: Shader 27 bind to kernel 1 '_Z6KernelP4NodePiPbS2_S2_S1_i'
GPGPU-Sim uArch: Shader 0 bind to kernel 1 '_Z6KernelP4NodePiPbS2_S2_S1_i'
Destroy streams for kernel 1: size 0
kernel_name = _Z6KernelP4NodePiPbS2_S2_S1_i 
kernel_launch_uid = 1 
gpu_sim_cycle = 492523
gpu_sim_insn = 1245376
gpu_ipc =       2.5286
gpu_tot_sim_cycle = 717209
gpu_tot_sim_insn = 1245376
gpu_tot_ipc =       1.7364
gpu_tot_issued_cta = 128
max_total_param_size = 0
gpu_stall_dramfull = 39
gpu_stall_icnt2sh    = 3354
partiton_reqs_in_parallel = 10835467
partiton_reqs_in_parallel_total    = 0
partiton_level_parallism =      21.9999
partiton_level_parallism_total  =      15.1078
partiton_reqs_in_parallel_util = 10835467
partiton_reqs_in_parallel_util_total    = 0
gpu_sim_cycle_parition_util = 492523
gpu_tot_sim_cycle_parition_util    = 0
partiton_level_parallism_util =      21.9999
partiton_level_parallism_util_total  =      21.9999
partiton_replys_in_parallel = 2220
partiton_replys_in_parallel_total    = 0
L2_BW  =       0.4272 GB/Sec
L2_BW_total  =       0.2934 GB/Sec
gpu_total_sim_rate=1411

========= Core cache stats =========
L1I_cache:
	L1I_total_cache_accesses = 22632
	L1I_total_cache_misses = 3611
	L1I_total_cache_miss_rate = 0.1596
	L1I_total_cache_pending_hits = 0
	L1I_total_cache_reservation_fails = 10363
L1D_cache:
	L1D_cache_core[0]: Access = 0, Miss = 0, Miss_rate = -nan, Pending_hits = 0, Reservation_fails = 0
	L1D_cache_core[1]: Access = 0, Miss = 0, Miss_rate = -nan, Pending_hits = 0, Reservation_fails = 0
	L1D_cache_core[2]: Access = 0, Miss = 0, Miss_rate = -nan, Pending_hits = 0, Reservation_fails = 0
	L1D_cache_core[3]: Access = 0, Miss = 0, Miss_rate = -nan, Pending_hits = 0, Reservation_fails = 0
	L1D_cache_core[4]: Access = 0, Miss = 0, Miss_rate = -nan, Pending_hits = 0, Reservation_fails = 0
	L1D_cache_core[5]: Access = 0, Miss = 0, Miss_rate = -nan, Pending_hits = 0, Reservation_fails = 0
	L1D_cache_core[6]: Access = 0, Miss = 0, Miss_rate = -nan, Pending_hits = 0, Reservation_fails = 0
	L1D_cache_core[7]: Access = 0, Miss = 0, Miss_rate = -nan, Pending_hits = 0, Reservation_fails = 0
	L1D_cache_core[8]: Access = 0, Miss = 0, Miss_rate = -nan, Pending_hits = 0, Reservation_fails = 0
	L1D_cache_core[9]: Access = 0, Miss = 0, Miss_rate = -nan, Pending_hits = 0, Reservation_fails = 0
	L1D_cache_core[10]: Access = 0, Miss = 0, Miss_rate = -nan, Pending_hits = 0, Reservation_fails = 0
	L1D_cache_core[11]: Access = 0, Miss = 0, Miss_rate = -nan, Pending_hits = 0, Reservation_fails = 0
	L1D_cache_core[12]: Access = 0, Miss = 0, Miss_rate = -nan, Pending_hits = 0, Reservation_fails = 0
	L1D_cache_core[13]: Access = 0, Miss = 0, Miss_rate = -nan, Pending_hits = 0, Reservation_fails = 0
	L1D_cache_core[14]: Access = 0, Miss = 0, Miss_rate = -nan, Pending_hits = 0, Reservation_fails = 0
	L1D_cache_core[15]: Access = 0, Miss = 0, Miss_rate = -nan, Pending_hits = 0, Reservation_fails = 0
	L1D_cache_core[16]: Access = 0, Miss = 0, Miss_rate = -nan, Pending_hits = 0, Reservation_fails = 0
	L1D_cache_core[17]: Access = 0, Miss = 0, Miss_rate = -nan, Pending_hits = 0, Reservation_fails = 0
	L1D_cache_core[18]: Access = 0, Miss = 0, Miss_rate = -nan, Pending_hits = 0, Reservation_fails = 0
	L1D_cache_core[19]: Access = 0, Miss = 0, Miss_rate = -nan, Pending_hits = 0, Reservation_fails = 0
	L1D_cache_core[20]: Access = 0, Miss = 0, Miss_rate = -nan, Pending_hits = 0, Reservation_fails = 0
	L1D_cache_core[21]: Access = 0, Miss = 0, Miss_rate = -nan, Pending_hits = 0, Reservation_fails = 0
	L1D_cache_core[22]: Access = 0, Miss = 0, Miss_rate = -nan, Pending_hits = 0, Reservation_fails = 0
	L1D_cache_core[23]: Access = 0, Miss = 0, Miss_rate = -nan, Pending_hits = 0, Reservation_fails = 0
	L1D_cache_core[24]: Access = 0, Miss = 0, Miss_rate = -nan, Pending_hits = 0, Reservation_fails = 0
	L1D_cache_core[25]: Access = 0, Miss = 0, Miss_rate = -nan, Pending_hits = 0, Reservation_fails = 0
	L1D_cache_core[26]: Access = 0, Miss = 0, Miss_rate = -nan, Pending_hits = 0, Reservation_fails = 0
	L1D_cache_core[27]: Access = 0, Miss = 0, Miss_rate = -nan, Pending_hits = 0, Reservation_fails = 0
	L1D_total_cache_accesses = 0
	L1D_total_cache_misses = 0
	L1D_total_cache_pending_hits = 0
	L1D_total_cache_reservation_fails = 0
	L1D_cache_data_port_util = 0.000
	L1D_cache_fill_port_util = 0.000
L1C_cache:
	L1C_total_cache_accesses = 14336
	L1C_total_cache_misses = 1792
	L1C_total_cache_miss_rate = 0.1250
	L1C_total_cache_pending_hits = 0
	L1C_total_cache_reservation_fails = 4886
L1T_cache:
	L1T_total_cache_accesses = 0
	L1T_total_cache_misses = 0
	L1T_total_cache_pending_hits = 0
	L1T_total_cache_reservation_fails = 0

Total_core_cache_stats:
	Total_core_cache_stats_breakdown[GLOBAL_ACC_R][HIT] = 0
	Total_core_cache_stats_breakdown[GLOBAL_ACC_R][HIT_RESERVED] = 0
	Total_core_cache_stats_breakdown[GLOBAL_ACC_R][MISS] = 0
	Total_core_cache_stats_breakdown[GLOBAL_ACC_R][RESERVATION_FAIL] = 0
	Total_core_cache_stats_breakdown[LOCAL_ACC_R][HIT] = 0
	Total_core_cache_stats_breakdown[LOCAL_ACC_R][HIT_RESERVED] = 0
	Total_core_cache_stats_breakdown[LOCAL_ACC_R][MISS] = 0
	Total_core_cache_stats_breakdown[LOCAL_ACC_R][RESERVATION_FAIL] = 0
	Total_core_cache_stats_breakdown[CONST_ACC_R][HIT] = 12544
	Total_core_cache_stats_breakdown[CONST_ACC_R][HIT_RESERVED] = 0
	Total_core_cache_stats_breakdown[CONST_ACC_R][MISS] = 1792
	Total_core_cache_stats_breakdown[CONST_ACC_R][RESERVATION_FAIL] = 4886
	Total_core_cache_stats_breakdown[TEXTURE_ACC_R][HIT] = 0
	Total_core_cache_stats_breakdown[TEXTURE_ACC_R][HIT_RESERVED] = 0
	Total_core_cache_stats_breakdown[TEXTURE_ACC_R][MISS] = 0
	Total_core_cache_stats_breakdown[TEXTURE_ACC_R][RESERVATION_FAIL] = 0
	Total_core_cache_stats_breakdown[GLOBAL_ACC_W][HIT] = 0
	Total_core_cache_stats_breakdown[GLOBAL_ACC_W][HIT_RESERVED] = 0
	Total_core_cache_stats_breakdown[GLOBAL_ACC_W][MISS] = 0
	Total_core_cache_stats_breakdown[GLOBAL_ACC_W][RESERVATION_FAIL] = 0
	Total_core_cache_stats_breakdown[LOCAL_ACC_W][HIT] = 0
	Total_core_cache_stats_breakdown[LOCAL_ACC_W][HIT_RESERVED] = 0
	Total_core_cache_stats_breakdown[LOCAL_ACC_W][MISS] = 0
	Total_core_cache_stats_breakdown[LOCAL_ACC_W][RESERVATION_FAIL] = 0
	Total_core_cache_stats_breakdown[L1_WRBK_ACC][HIT] = 0
	Total_core_cache_stats_breakdown[L1_WRBK_ACC][HIT_RESERVED] = 0
	Total_core_cache_stats_breakdown[L1_WRBK_ACC][MISS] = 0
	Total_core_cache_stats_breakdown[L1_WRBK_ACC][RESERVATION_FAIL] = 0
	Total_core_cache_stats_breakdown[L2_WRBK_ACC][HIT] = 0
	Total_core_cache_stats_breakdown[L2_WRBK_ACC][HIT_RESERVED] = 0
	Total_core_cache_stats_breakdown[L2_WRBK_ACC][MISS] = 0
	Total_core_cache_stats_breakdown[L2_WRBK_ACC][RESERVATION_FAIL] = 0
	Total_core_cache_stats_breakdown[INST_ACC_R][HIT] = 19021
	Total_core_cache_stats_breakdown[INST_ACC_R][HIT_RESERVED] = 0
	Total_core_cache_stats_breakdown[INST_ACC_R][MISS] = 3611
	Total_core_cache_stats_breakdown[INST_ACC_R][RESERVATION_FAIL] = 10363
	Total_core_cache_stats_breakdown[L1_WR_ALLOC_R][HIT] = 0
	Total_core_cache_stats_breakdown[L1_WR_ALLOC_R][HIT_RESERVED] = 0
	Total_core_cache_stats_breakdown[L1_WR_ALLOC_R][MISS] = 0
	Total_core_cache_stats_breakdown[L1_WR_ALLOC_R][RESERVATION_FAIL] = 0
	Total_core_cache_stats_breakdown[L2_WR_ALLOC_R][HIT] = 0
	Total_core_cache_stats_breakdown[L2_WR_ALLOC_R][HIT_RESERVED] = 0
	Total_core_cache_stats_breakdown[L2_WR_ALLOC_R][MISS] = 0
	Total_core_cache_stats_breakdown[L2_WR_ALLOC_R][RESERVATION_FAIL] = 0
	Total_core_cache_stats_breakdown[CONST_ACC_R][TOTAL_ACCESS] = 14336
	Total_core_cache_stats_breakdown[INST_ACC_R][TOTAL_ACCESS] = 22632
Shader 0 warp_id issue ditsribution:
warp_id:
0, 1, 2, 3, 4, 5, 6, 7, 8, 9, 10, 11, 12, 13, 14, 15, 16, 17, 18, 19, 20, 21, 22, 23, 24, 25, 26, 27, 28, 29, 30, 31, 32, 33, 34, 35, 36, 37, 38, 39, 40, 41, 42, 43, 44, 45, 46, 47, 48, 49, 50, 51, 52, 53, 54, 55, 56, 57, 58, 59, 60, 61, 62, 63, 
distro:
46, 46, 45, 46, 45, 46, 45, 46, 46, 46, 46, 46, 46, 46, 46, 46, 46, 46, 46, 46, 46, 46, 46, 46, 46, 46, 46, 46, 46, 46, 46, 46, 23, 23, 23, 23, 23, 23, 23, 23, 23, 23, 23, 23, 23, 23, 23, 23, 23, 23, 23, 23, 23, 23, 23, 23, 23, 23, 23, 23, 23, 23, 23, 23, 
gpgpu_n_tot_thrd_icount = 1317216
gpgpu_n_tot_w_icount = 41163
gpgpu_n_stall_shd_mem = 5505
gpgpu_n_mem_read_local = 0
gpgpu_n_mem_write_local = 0
gpgpu_n_mem_read_global = 2090
gpgpu_n_mem_write_global = 17
gpgpu_n_mem_texture = 0
gpgpu_n_mem_const = 28
gpgpu_n_load_insn  = 65578
gpgpu_n_store_insn = 17
gpgpu_n_shmem_insn = 0
gpgpu_n_tex_insn = 0
gpgpu_n_const_mem_insn = 0
gpgpu_n_param_mem_insn = 458752
gpgpu_n_shmem_bkconflict = 0
gpgpu_n_cache_bkconflict = 0
gpgpu_n_intrawarp_mshr_merge = 0
gpgpu_n_cmem_portconflict = 4886
gpgpu_stall_shd_mem[c_mem][bk_conf] = 4886
gpgpu_stall_shd_mem[c_mem][mshr_rc] = 0
gpgpu_stall_shd_mem[c_mem][icnt_rc] = 0
gpgpu_stall_shd_mem[c_mem][data_port_stall] = 0
gpgpu_stall_shd_mem[t_mem][mshr_rc] = 0
gpgpu_stall_shd_mem[t_mem][icnt_rc] = 0
gpgpu_stall_shd_mem[t_mem][data_port_stall] = 0
gpgpu_stall_shd_mem[s_mem][bk_conf] = 0
gpgpu_stall_shd_mem[gl_mem][bk_conf] = 0
gpgpu_stall_shd_mem[gl_mem][coal_stall] = 0
gpgpu_stall_shd_mem[gl_mem][data_port_stall] = 0
gpgpu_stall_shd_mem[g_mem_ld][mshr_rc] = 0
gpgpu_stall_shd_mem[g_mem_ld][icnt_rc] = 619
gpgpu_stall_shd_mem[g_mem_ld][wb_icnt_rc] = 0
gpgpu_stall_shd_mem[g_mem_ld][wb_rsrv_fail] = 0
gpgpu_stall_shd_mem[g_mem_st][mshr_rc] = 0
gpgpu_stall_shd_mem[g_mem_st][icnt_rc] = 0
gpgpu_stall_shd_mem[g_mem_st][wb_icnt_rc] = 0
gpgpu_stall_shd_mem[g_mem_st][wb_rsrv_fail] = 0
gpgpu_stall_shd_mem[l_mem_ld][mshr_rc] = 0
gpgpu_stall_shd_mem[l_mem_ld][icnt_rc] = 0
gpgpu_stall_shd_mem[l_mem_ld][wb_icnt_rc] = 0
gpgpu_stall_shd_mem[l_mem_ld][wb_rsrv_fail] = 0
gpgpu_stall_shd_mem[l_mem_st][mshr_rc] = 0
gpgpu_stall_shd_mem[l_mem_st][icnt_rc] = 0
gpgpu_stall_shd_mem[l_mem_ld][wb_icnt_rc] = 0
gpgpu_stall_shd_mem[l_mem_ld][wb_rsrv_fail] = 0
gpu_reg_bank_conflict_stalls = 0
Warp Occupancy Distribution:
Stall:15959	W0_Idle:273538	W0_Scoreboard:13822564	W1:203	W2:0	W3:0	W4:0	W5:0	W6:0	W7:0	W8:0	W9:0	W10:0	W11:0	W12:0	W13:0	W14:0	W15:0	W16:0	W17:0	W18:0	W19:0	W20:0	W21:0	W22:0	W23:0	W24:0	W25:0	W26:0	W27:0	W28:0	W29:0	W30:0	W31:0	W32:40960
traffic_breakdown_coretomem[CONST_ACC_R] = 224 {8:28,}
traffic_breakdown_coretomem[GLOBAL_ACC_R] = 16720 {8:2090,}
traffic_breakdown_coretomem[GLOBAL_ACC_W] = 680 {40:17,}
traffic_breakdown_coretomem[INST_ACC_R] = 680 {8:85,}
traffic_breakdown_memtocore[CONST_ACC_R] = 2016 {72:28,}
traffic_breakdown_memtocore[GLOBAL_ACC_R] = 83600 {40:2090,}
traffic_breakdown_memtocore[GLOBAL_ACC_W] = 136 {8:17,}
traffic_breakdown_memtocore[INST_ACC_R] = 11560 {136:85,}
maxmrqlatency = 103 
maxdqlatency = 0 
maxmflatency = 242553 
averagemflatency = 203780 
max_icnt2mem_latency = 242187 
max_icnt2sh_latency = 717208 
mrq_lat_table:143 	7 	13 	71 	8 	204 	114 	0 	0 	0 	0 	0 	0 	0 	0 	0 	0 	0 	0 	0 	0 	0 	0 	0 	0 	0 	0 	0 	0 	0 	0 	0 	
dq_lat_table:0 	0 	0 	0 	0 	0 	0 	0 	0 	0 	0 	0 	0 	0 	0 	0 	0 	0 	0 	0 	0 	0 	0 	0 	0 	0 	0 	0 	0 	0 	0 	0 	
mf_lat_table:0 	0 	0 	0 	0 	0 	0 	341 	1 	0 	0 	0 	0 	0 	0 	0 	0 	1793 	0 	0 	0 	0 	0 	0 	0 	0 	0 	0 	0 	0 	0 	0 	
icnt2mem_lat_table:0 	0 	380 	23 	24 	0 	0 	0 	0 	0 	0 	0 	0 	0 	0 	0 	0 	1793 	0 	0 	0 	0 	0 	0 	
icnt2sh_lat_table:0 	0 	525 	917 	670 	6 	0 	0 	0 	0 	0 	0 	0 	0 	0 	0 	0 	0 	1 	16 	0 	0 	0 	0 	
mf_lat_pw_table:0 	0 	0 	0 	0 	0 	0 	15 	0 	0 	0 	0 	0 	0 	0 	0 	0 	2 	0 	0 	0 	0 	0 	0 	0 	0 	0 	0 	0 	0 	0 	0 	
maximum concurrent accesses to same row:
dram[0]:         0         0         0         0         0         0         0         0         0         0         0         0         0         0         0         0 
dram[1]:         0         0         0         0        15         0         0         0         0         0         1         0         0         0         0         0 
dram[2]:         0         0         0         0         0         0         0         0         0         0         0         0         0         0         0         0 
dram[3]:         0         0         0         0        15         0         0         0         0         0         0         0         0         0         0         0 
dram[4]:         0         0         0         0         0         0         0         0         0         0         0         0         0         0         0         0 
dram[5]:         0         0         0         0         0         0         0         0         0         0         0         0         0         0         0         0 
dram[6]:         0         0         0         0         0         0         0         0         0         0         0         0         0         0         0         0 
dram[7]:         0         0         0         0         0         0         0         0         0         0         0         0         0         0         0         0 
dram[8]:         0         0         9         0         0         0         0         0         0         0         0         0         0         0         0         0 
dram[9]:         0         0         0         0         0         0         0         0         0         0         0         0         0         0         0         0 
dram[10]:         0         0         0         9         0         0         0         0         0         0         0         0         0         0         0         0 
maximum service time to same row:
dram[0]:         0         0    243196    243200    243216    243222         0         0         0         0         0         0         0    487972         0         0 
dram[1]:         0         0    243196    243200    249274    243229         0         0         0    487986    243488         0         0         0         0         0 
dram[2]:         0         0    243196    243200    243216    243225    491002         0    492078         0         0         0         0         0         0         0 
dram[3]:         0         0    243196    243200    247772    243222         0    488740    489494         0         0         0         0         0         0         0 
dram[4]:         0         0    243196    243198    243231    243238    487232    490234         0         0         0    487554         0         0       228       789 
dram[5]:         0         0    243196    243197    243229    243240    490248         0    490570         0         0         0         0         0    243841    243455 
dram[6]:         0         0    243196    243197    243214    243224         0         0         0    488308    489062    491324    489480         0         0         0 
dram[7]:    486943         0    243196    243197    243229    243231         0         0    244531         0         0         0         0         0         0         0 
dram[8]:         0         0    245530    243200    243217    243225         0    491742         0         0    489816         0         0         0         0         0 
dram[9]:         0         0    243196    243200    243229    243232         0         0         0         0         0         0         0         0         0         0 
dram[10]:         0         0    243196    244018    243222    243235    492511         0         0         0         0         0         0         0         0         0 
average row accesses per activate:
dram[0]:       inf      -nan  8.000000  8.000000 15.000000 15.000000      -nan      -nan      -nan      -nan      -nan      -nan      -nan  2.000000      -nan      -nan 
dram[1]:      -nan      -nan  8.000000  8.000000  8.500000 15.000000      -nan      -nan      -nan  2.000000  1.000000      -nan      -nan      -nan      -nan      -nan 
dram[2]:      -nan      -nan  8.000000  8.000000 15.000000 15.000000  2.000000      -nan  1.000000      -nan      -nan      -nan      -nan      -nan      -nan      -nan 
dram[3]:      -nan      -nan  9.000000  9.000000  8.500000 15.000000      -nan  4.000000  2.000000      -nan      -nan      -nan      -nan      -nan      -nan      -nan 
dram[4]:      -nan      -nan  9.000000  9.000000 15.000000 15.000000  2.000000  2.000000      -nan      -nan      -nan  1.000000      -nan      -nan  1.000000  1.000000 
dram[5]:      -nan      -nan  9.000000  9.000000 15.000000 15.000000  2.000000      -nan  1.000000      -nan      -nan      -nan      -nan      -nan  1.000000  1.000000 
dram[6]:      -nan      -nan  9.000000  9.000000 14.000000 14.000000      -nan      -nan      -nan  1.000000  1.000000  1.000000  2.000000      -nan      -nan      -nan 
dram[7]:  1.000000      -nan  9.000000  9.000000 14.000000 14.000000      -nan      -nan  1.000000      -nan      -nan      -nan      -nan      -nan      -nan      -nan 
dram[8]:      -nan      -nan  5.500000  9.000000 14.000000 14.000000      -nan  2.000000      -nan      -nan  1.000000      -nan      -nan      -nan      -nan      -nan 
dram[9]:      -nan      -nan  9.000000  9.000000 14.000000 14.000000      -nan      -nan      -nan      -nan      -nan      -nan      -nan      -nan      -nan      -nan 
dram[10]:      -nan      -nan  9.000000  5.500000 14.000000 14.000000  2.000000      -nan      -nan      -nan      -nan      -nan      -nan      -nan      -nan      -nan 
average row locality = 560/74 = 7.567567
number of total memory accesses made:
dram[0]:         0         0         0         0         0         0         0         0         0         0         0         0         0         0         0         0 
dram[1]:         0         0         0         0         0         0         0         0         0         0         0         0         0         0         0         0 
dram[2]:         0         0         0         0         0         0         0         0         0         0         0         0         0         0         0         0 
dram[3]:         0         0         0         0         0         0         0         0         0         0         0         0         0         0         0         0 
dram[4]:         0         0         0         0         0         0         0         0         0         0         0         0         0         0         0         0 
dram[5]:         0         0         0         0         0         0         0         0         0         0         0         0         0         0         0         0 
dram[6]:         0         0         0         0         0         0         0         0         0         0         0         0         0         0         0         0 
dram[7]:         0         0         0         0         0         0         0         0         0         0         0         0         0         0         0         0 
dram[8]:         0         0         0         0         0         0         0         0         0         0         0         0         0         0         0         0 
dram[9]:         0         0         0         0         0         0         0         0         0         0         0         0         0         0         0         0 
dram[10]:         0         0         0         0         0         0         0         0         0         0         0         0         0         0         0         0 
total accesses: 0
min_bank_accesses = 0!
min_chip_accesses = 0!
number of total read accesses:
dram[0]:         1         0         8         8        15        15         0         0         0         0         0         0         0         1         0         0 
dram[1]:         0         0         8         8        16        15         0         0         0         1         2         0         0         0         0         0 
dram[2]:         0         0         8         8        15        15         1         0         1         0         0         0         0         0         0         0 
dram[3]:         0         0         9         9        16        15         0         2         1         0         0         0         0         0         0         0 
dram[4]:         0         0         9         9        15        15         1         1         0         0         0         1         0         0         1         1 
dram[5]:         0         0         9         9        15        15         1         0         1         0         0         0         0         0         1         1 
dram[6]:         0         0         9         9        14        14         0         0         0         1         1         1         1         0         0         0 
dram[7]:         1         0         9         9        14        14         0         0         1         0         0         0         0         0         0         0 
dram[8]:         0         0        10         9        14        14         0         1         0         0         1         0         0         0         0         0 
dram[9]:         0         0         9         9        14        14         0         0         0         0         0         0         0         0         0         0 
dram[10]:         0         0         9        10        14        14         1         0         0         0         0         0         0         0         0         0 
total reads: 544
min_bank_accesses = 0!
chip skew: 53/46 = 1.15
number of total write accesses:
dram[0]:         0         0         0         0         0         0         0         0         0         0         0         0         0         1         0         0 
dram[1]:         0         0         0         0         1         0         0         0         0         1         0         0         0         0         0         0 
dram[2]:         0         0         0         0         0         0         1         0         0         0         0         0         0         0         0         0 
dram[3]:         0         0         0         0         1         0         0         2         1         0         0         0         0         0         0         0 
dram[4]:         0         0         0         0         0         0         1         1         0         0         0         0         0         0         0         0 
dram[5]:         0         0         0         0         0         0         1         0         0         0         0         0         0         0         0         0 
dram[6]:         0         0         0         0         0         0         0         0         0         0         0         0         1         0         0         0 
dram[7]:         0         0         0         0         0         0         0         0         0         0         0         0         0         0         0         0 
dram[8]:         0         0         1         0         0         0         0         1         0         0         0         0         0         0         0         0 
dram[9]:         0         0         0         0         0         0         0         0         0         0         0         0         0         0         0         0 
dram[10]:         0         0         0         1         0         0         1         0         0         0         0         0         0         0         0         0 
total reads: 16
min_bank_accesses = 0!
min_chip_accesses = 0!
average mf latency per bank:
dram[0]:       6678    none      969462    969623    775718    775792    none      none      none      none      none      none      none         119    none      none  
dram[1]:     none      none      969463    969596    684473    775812    none      none      none         119      1813    none      none      none      none      none  
dram[2]:     none      none      969496    969649    775716    775813       119    none         250    none      none      none      none      none      none      none  
dram[3]:     none      none      969546    969674    684478    775824    none         118       119    none      none      none      none      none      none      none  
dram[4]:     none      none      969492    969668    775745    775863       119       119    none      none      none         250    none      none           0         0
dram[5]:     none      none      969489    969624    775759    775877       119    none         250    none      none      none      none      none           0         0
dram[6]:     none      none      969486    969643    831108    831161    none      none      none         250       250       250       119    none      none      none  
dram[7]:     243309    none      969494    969651    761884    761951    none      none         250    none      none      none      none      none      none      none  
dram[8]:     none      none      793254    969623    761922    761951    none         119    none      none         250    none      none      none      none      none  
dram[9]:     none      none      969481    969627    761911    761975    none      none      none      none      none      none      none      none      none      none  
dram[10]:     none      none      969471    793329    761910    761971       119    none      none      none      none      none      none      none      none      none  
maximum mf latency per bank:
dram[0]:        252         0    242406    242458    242452    242489         0         0         0         0         0         0         0       239         0         0
dram[1]:          0         0    242404    242442    242463    242493         0         0         0       239       256         0         0         0         0         0
dram[2]:          0         0    242406    242450    242456    242493       239         0       250         0         0         0         0         0         0         0
dram[3]:          0         0    242414    242458    242467    242499         0       239       239         0         0         0         0         0         0         0
dram[4]:          0         0    242414    242467    242483    242544       239       239         0         0         0       250         0         0         0         0
dram[5]:          0         0    242416    242463    242495    242553       239         0       250         0         0         0         0         0         0         0
dram[6]:          0         0    242416    242461    242478    242510         0         0         0       250       250       250       239         0         0         0
dram[7]:     242399         0    242425    242466    242467    242496         0         0       250         0         0         0         0         0         0         0
dram[8]:          0         0    242415    242450    242473    242493         0       239         0         0       250         0         0         0         0         0
dram[9]:          0         0    242417    242463    242470    242497         0         0         0         0         0         0         0         0         0         0
dram[10]:          0         0    242408    242443    242480    242512       239         0         0         0         0         0         0         0         0         0
Memory Partition 0: 
Cache L2_bank_000:
MSHR contents

Cache L2_bank_001:
MSHR contents

In Dram Latency Queue (total = 0): 
DRAM[0]: 16 bks, busW=4 BL=8 CL=12, tRRD=2 tCCD=6, tRCD=12 tRAS=28 tRP=12 tRC=40
n_cmd=914542 n_nop=914343 n_act=6 n_pre=0 n_req=49 n_rd=192 n_write=1 bw_util=0.0004221
n_activity=520 dram_eff=0.7423
bk0: 4a 914523i bk1: 0a 914542i bk2: 32a 914467i bk3: 32a 914409i bk4: 60a 914314i bk5: 60a 914235i bk6: 0a 914540i bk7: 0a 914541i bk8: 0a 914542i bk9: 0a 914542i bk10: 0a 914542i bk11: 0a 914542i bk12: 0a 914542i bk13: 4a 914517i bk14: 0a 914541i bk15: 0a 914542i 
dram_util_bins: 0 0 0 0 0 0 0 0 0 0
dram_eff_bins: 0 0 0 0 0 0 0 0 0 0
mrqq: max=20 avg=0.00361055
Memory Partition 1: 
Cache L2_bank_002:
MSHR contents
MSHR: tag=0xc0244400, atomic=0 1 entries : 0x7f91b1aace40 :  mf: uid= 54336, sid01:w00, part=1, addr=0xc0244440, load , size=32, unknown  status = IN_PARTITION_MC_RETURNQ (717208), 

Cache L2_bank_003:
MSHR contents

In Dram Latency Queue (total = 0): 
DRAM[1]: 16 bks, busW=4 BL=8 CL=12, tRRD=2 tCCD=6, tRCD=12 tRAS=28 tRP=12 tRC=40
n_cmd=914542 n_nop=914330 n_act=8 n_pre=2 n_req=52 n_rd=200 n_write=2 bw_util=0.0004418
n_activity=619 dram_eff=0.6527
bk0: 0a 914542i bk1: 0a 914544i bk2: 32a 914468i bk3: 32a 914409i bk4: 64a 914291i bk5: 60a 914248i bk6: 0a 914541i bk7: 0a 914542i bk8: 0a 914543i bk9: 4a 914517i bk10: 8a 914490i bk11: 0a 914538i bk12: 0a 914540i bk13: 0a 914540i bk14: 0a 914541i bk15: 0a 914541i 
dram_util_bins: 0 0 0 0 0 0 0 0 0 0
dram_eff_bins: 0 0 0 0 0 0 0 0 0 0
mrqq: max=21 avg=0.00361711
Memory Partition 2: 
Cache L2_bank_004:
MSHR contents

Cache L2_bank_005:
MSHR contents

In Dram Latency Queue (total = 0): 
DRAM[2]: 16 bks, busW=4 BL=8 CL=12, tRRD=2 tCCD=6, tRCD=12 tRAS=28 tRP=12 tRC=40
n_cmd=914542 n_nop=914343 n_act=6 n_pre=0 n_req=49 n_rd=192 n_write=1 bw_util=0.0004221
n_activity=520 dram_eff=0.7423
bk0: 0a 914542i bk1: 0a 914543i bk2: 32a 914468i bk3: 32a 914410i bk4: 60a 914314i bk5: 60a 914240i bk6: 4a 914515i bk7: 0a 914539i bk8: 4a 914522i bk9: 0a 914541i bk10: 0a 914541i bk11: 0a 914541i bk12: 0a 914542i bk13: 0a 914542i bk14: 0a 914542i bk15: 0a 914542i 
dram_util_bins: 0 0 0 0 0 0 0 0 0 0
dram_eff_bins: 0 0 0 0 0 0 0 0 0 0
mrqq: max=19 avg=0.00367725
Memory Partition 3: 
Cache L2_bank_006:
MSHR contents

Cache L2_bank_007:
MSHR contents

In Dram Latency Queue (total = 0): 
DRAM[3]: 16 bks, busW=4 BL=8 CL=12, tRRD=2 tCCD=6, tRCD=12 tRAS=28 tRP=12 tRC=40
n_cmd=914542 n_nop=914322 n_act=7 n_pre=1 n_req=56 n_rd=208 n_write=4 bw_util=0.0004636
n_activity=622 dram_eff=0.6817
bk0: 0a 914543i bk1: 0a 914545i bk2: 36a 914461i bk3: 36a 914395i bk4: 64a 914262i bk5: 60a 914221i bk6: 0a 914540i bk7: 8a 914498i bk8: 4a 914515i bk9: 0a 914539i bk10: 0a 914540i bk11: 0a 914541i bk12: 0a 914541i bk13: 0a 914541i bk14: 0a 914541i bk15: 0a 914543i 
dram_util_bins: 0 0 0 0 0 0 0 0 0 0
dram_eff_bins: 0 0 0 0 0 0 0 0 0 0
mrqq: max=22 avg=0.00430051
Memory Partition 4: 
Cache L2_bank_008:
MSHR contents

Cache L2_bank_009:
MSHR contents

In Dram Latency Queue (total = 0): 
DRAM[4]: 16 bks, busW=4 BL=8 CL=12, tRRD=2 tCCD=6, tRCD=12 tRAS=28 tRP=12 tRC=40
n_cmd=914542 n_nop=914319 n_act=9 n_pre=0 n_req=55 n_rd=212 n_write=2 bw_util=0.000468
n_activity=656 dram_eff=0.6524
bk0: 0a 914542i bk1: 0a 914544i bk2: 36a 914459i bk3: 36a 914392i bk4: 60a 914328i bk5: 60a 914250i bk6: 4a 914516i bk7: 4a 914514i bk8: 0a 914539i bk9: 0a 914540i bk10: 0a 914540i bk11: 4a 914522i bk12: 0a 914540i bk13: 0a 914542i bk14: 4a 914522i bk15: 4a 914523i 
dram_util_bins: 0 0 0 0 0 0 0 0 0 0
dram_eff_bins: 0 0 0 0 0 0 0 0 0 0
mrqq: max=22 avg=0.00412556
Memory Partition 5: 
Cache L2_bank_010:
MSHR contents

Cache L2_bank_011:
MSHR contents

In Dram Latency Queue (total = 0): 
DRAM[5]: 16 bks, busW=4 BL=8 CL=12, tRRD=2 tCCD=6, tRCD=12 tRAS=28 tRP=12 tRC=40
n_cmd=914542 n_nop=914325 n_act=8 n_pre=0 n_req=53 n_rd=208 n_write=1 bw_util=0.0004571
n_activity=606 dram_eff=0.6898
bk0: 0a 914541i bk1: 0a 914543i bk2: 36a 914458i bk3: 36a 914386i bk4: 60a 914320i bk5: 60a 914245i bk6: 4a 914515i bk7: 0a 914539i bk8: 4a 914522i bk9: 0a 914541i bk10: 0a 914541i bk11: 0a 914543i bk12: 0a 914543i bk13: 0a 914544i bk14: 4a 914524i bk15: 4a 914523i 
dram_util_bins: 0 0 0 0 0 0 0 0 0 0
dram_eff_bins: 0 0 0 0 0 0 0 0 0 0
mrqq: max=21 avg=0.00406652
Memory Partition 6: 
Cache L2_bank_012:
MSHR contents

Cache L2_bank_013:
MSHR contents

In Dram Latency Queue (total = 0): 
DRAM[6]: 16 bks, busW=4 BL=8 CL=12, tRRD=2 tCCD=6, tRCD=12 tRAS=28 tRP=12 tRC=40
n_cmd=914542 n_nop=914333 n_act=8 n_pre=0 n_req=51 n_rd=200 n_write=1 bw_util=0.0004396
n_activity=590 dram_eff=0.6814
bk0: 0a 914542i bk1: 0a 914543i bk2: 36a 914459i bk3: 36a 914388i bk4: 56a 914300i bk5: 56a 914232i bk6: 0a 914540i bk7: 0a 914541i bk8: 0a 914542i bk9: 4a 914524i bk10: 4a 914523i bk11: 4a 914522i bk12: 4a 914516i bk13: 0a 914540i bk14: 0a 914541i bk15: 0a 914542i 
dram_util_bins: 0 0 0 0 0 0 0 0 0 0
dram_eff_bins: 0 0 0 0 0 0 0 0 0 0
mrqq: max=21 avg=0.00398998
Memory Partition 7: 
Cache L2_bank_014:
MSHR contents

Cache L2_bank_015:
MSHR contents

In Dram Latency Queue (total = 0): 
DRAM[7]: 16 bks, busW=4 BL=8 CL=12, tRRD=2 tCCD=6, tRCD=12 tRAS=28 tRP=12 tRC=40
n_cmd=914542 n_nop=914344 n_act=6 n_pre=0 n_req=48 n_rd=192 n_write=0 bw_util=0.0004199
n_activity=510 dram_eff=0.7529
bk0: 4a 914524i bk1: 0a 914543i bk2: 36a 914458i bk3: 36a 914386i bk4: 56a 914320i bk5: 56a 914248i bk6: 0a 914539i bk7: 0a 914540i bk8: 4a 914522i bk9: 0a 914540i bk10: 0a 914542i bk11: 0a 914543i bk12: 0a 914543i bk13: 0a 914543i bk14: 0a 914543i bk15: 0a 914544i 
dram_util_bins: 0 0 0 0 0 0 0 0 0 0
dram_eff_bins: 0 0 0 0 0 0 0 0 0 0
mrqq: max=19 avg=0.00384236
Memory Partition 8: 
Cache L2_bank_016:
MSHR contents

Cache L2_bank_017:
MSHR contents

In Dram Latency Queue (total = 0): 
DRAM[8]: 16 bks, busW=4 BL=8 CL=12, tRRD=2 tCCD=6, tRCD=12 tRAS=28 tRP=12 tRC=40
n_cmd=914542 n_nop=914336 n_act=7 n_pre=1 n_req=51 n_rd=196 n_write=2 bw_util=0.000433
n_activity=572 dram_eff=0.6923
bk0: 0a 914542i bk1: 0a 914544i bk2: 40a 914422i bk3: 36a 914391i bk4: 56a 914308i bk5: 56a 914242i bk6: 0a 914541i bk7: 4a 914515i bk8: 0a 914541i bk9: 0a 914541i bk10: 4a 914522i bk11: 0a 914540i bk12: 0a 914542i bk13: 0a 914542i bk14: 0a 914542i bk15: 0a 914542i 
dram_util_bins: 0 0 0 0 0 0 0 0 0 0
dram_eff_bins: 0 0 0 0 0 0 0 0 0 0
mrqq: max=21 avg=0.00391999
Memory Partition 9: 
Cache L2_bank_018:
MSHR contents

Cache L2_bank_019:
MSHR contents

In Dram Latency Queue (total = 0): 
DRAM[9]: 16 bks, busW=4 BL=8 CL=12, tRRD=2 tCCD=6, tRCD=12 tRAS=28 tRP=12 tRC=40
n_cmd=914542 n_nop=914354 n_act=4 n_pre=0 n_req=46 n_rd=184 n_write=0 bw_util=0.0004024
n_activity=440 dram_eff=0.8364
bk0: 0a 914543i bk1: 0a 914544i bk2: 36a 914460i bk3: 36a 914393i bk4: 56a 914329i bk5: 56a 914254i bk6: 0a 914541i bk7: 0a 914541i bk8: 0a 914541i bk9: 0a 914541i bk10: 0a 914541i bk11: 0a 914542i bk12: 0a 914542i bk13: 0a 914542i bk14: 0a 914542i bk15: 0a 914543i 
dram_util_bins: 0 0 0 0 0 0 0 0 0 0
dram_eff_bins: 0 0 0 0 0 0 0 0 0 0
mrqq: max=20 avg=0.00386204
Memory Partition 10: 
Cache L2_bank_020:
MSHR contents
MSHR: tag=0xc0095100, atomic=0 1 entries : 0x7f91be951910 :  mf: uid= 54337, sid01:w00, part=10, addr=0xc0095100, load , size=32, unknown  status = IN_PARTITION_DRAM (717208), 

Cache L2_bank_021:
MSHR contents

In Dram Latency Queue (total = 0): 
DRAM[10]: 16 bks, busW=4 BL=8 CL=12, tRRD=2 tCCD=6, tRCD=12 tRAS=28 tRP=12 tRC=40
n_cmd=914542 n_nop=914342 n_act=6 n_pre=1 n_req=50 n_rd=191 n_write=2 bw_util=0.0004221
n_activity=525 dram_eff=0.7352
bk0: 0a 914543i bk1: 0a 914545i bk2: 36a 914460i bk3: 40a 914355i bk4: 56a 914316i bk5: 56a 914259i bk6: 3a 914516i bk7: 0a 914538i bk8: 0a 914539i bk9: 0a 914541i bk10: 0a 914542i bk11: 0a 914542i bk12: 0a 914542i bk13: 0a 914542i bk14: 0a 914543i bk15: 0a 914543i 
dram_util_bins: 0 0 0 0 0 0 0 0 0 0
dram_eff_bins: 0 0 0 0 0 0 0 0 0 0
mrqq: max=20 avg=0.00367397

========= L2 cache stats =========
L2_cache_bank[0]: Access = 120, Miss = 24, Miss_rate = 0.200, Pending_hits = 96, Reservation_fails = 0
L2_cache_bank[1]: Access = 93, Miss = 24, Miss_rate = 0.258, Pending_hits = 67, Reservation_fails = 0
L2_cache_bank[2]: Access = 119, Miss = 26, Miss_rate = 0.218, Pending_hits = 69, Reservation_fails = 0
L2_cache_bank[3]: Access = 93, Miss = 24, Miss_rate = 0.258, Pending_hits = 67, Reservation_fails = 0
L2_cache_bank[4]: Access = 94, Miss = 25, Miss_rate = 0.266, Pending_hits = 69, Reservation_fails = 0
L2_cache_bank[5]: Access = 92, Miss = 23, Miss_rate = 0.250, Pending_hits = 69, Reservation_fails = 0
L2_cache_bank[6]: Access = 99, Miss = 26, Miss_rate = 0.263, Pending_hits = 72, Reservation_fails = 0
L2_cache_bank[7]: Access = 98, Miss = 26, Miss_rate = 0.265, Pending_hits = 72, Reservation_fails = 0
L2_cache_bank[8]: Access = 125, Miss = 26, Miss_rate = 0.208, Pending_hits = 98, Reservation_fails = 0
L2_cache_bank[9]: Access = 126, Miss = 27, Miss_rate = 0.214, Pending_hits = 98, Reservation_fails = 0
L2_cache_bank[10]: Access = 99, Miss = 27, Miss_rate = 0.273, Pending_hits = 71, Reservation_fails = 0
L2_cache_bank[11]: Access = 124, Miss = 25, Miss_rate = 0.202, Pending_hits = 97, Reservation_fails = 0
L2_cache_bank[12]: Access = 94, Miss = 25, Miss_rate = 0.266, Pending_hits = 69, Reservation_fails = 0
L2_cache_bank[13]: Access = 94, Miss = 25, Miss_rate = 0.266, Pending_hits = 69, Reservation_fails = 0
L2_cache_bank[14]: Access = 101, Miss = 25, Miss_rate = 0.248, Pending_hits = 69, Reservation_fails = 0
L2_cache_bank[15]: Access = 92, Miss = 23, Miss_rate = 0.250, Pending_hits = 69, Reservation_fails = 0
L2_cache_bank[16]: Access = 94, Miss = 25, Miss_rate = 0.266, Pending_hits = 69, Reservation_fails = 0
L2_cache_bank[17]: Access = 93, Miss = 24, Miss_rate = 0.258, Pending_hits = 68, Reservation_fails = 0
L2_cache_bank[18]: Access = 92, Miss = 23, Miss_rate = 0.250, Pending_hits = 69, Reservation_fails = 0
L2_cache_bank[19]: Access = 92, Miss = 23, Miss_rate = 0.250, Pending_hits = 69, Reservation_fails = 0
L2_cache_bank[20]: Access = 93, Miss = 24, Miss_rate = 0.258, Pending_hits = 69, Reservation_fails = 0
L2_cache_bank[21]: Access = 93, Miss = 24, Miss_rate = 0.258, Pending_hits = 67, Reservation_fails = 0
L2_total_cache_accesses = 2220
L2_total_cache_misses = 544
L2_total_cache_miss_rate = 0.2450
L2_total_cache_pending_hits = 1632
L2_total_cache_reservation_fails = 0
L2_total_cache_breakdown:
	L2_cache_stats_breakdown[GLOBAL_ACC_R][HIT] = 43
	L2_cache_stats_breakdown[GLOBAL_ACC_R][HIT_RESERVED] = 1524
	L2_cache_stats_breakdown[GLOBAL_ACC_R][MISS] = 523
	L2_cache_stats_breakdown[GLOBAL_ACC_R][RESERVATION_FAIL] = 0
	L2_cache_stats_breakdown[LOCAL_ACC_R][HIT] = 0
	L2_cache_stats_breakdown[LOCAL_ACC_R][HIT_RESERVED] = 0
	L2_cache_stats_breakdown[LOCAL_ACC_R][MISS] = 0
	L2_cache_stats_breakdown[LOCAL_ACC_R][RESERVATION_FAIL] = 0
	L2_cache_stats_breakdown[CONST_ACC_R][HIT] = 0
	L2_cache_stats_breakdown[CONST_ACC_R][HIT_RESERVED] = 27
	L2_cache_stats_breakdown[CONST_ACC_R][MISS] = 1
	L2_cache_stats_breakdown[CONST_ACC_R][RESERVATION_FAIL] = 0
	L2_cache_stats_breakdown[TEXTURE_ACC_R][HIT] = 0
	L2_cache_stats_breakdown[TEXTURE_ACC_R][HIT_RESERVED] = 0
	L2_cache_stats_breakdown[TEXTURE_ACC_R][MISS] = 0
	L2_cache_stats_breakdown[TEXTURE_ACC_R][RESERVATION_FAIL] = 0
	L2_cache_stats_breakdown[GLOBAL_ACC_W][HIT] = 1
	L2_cache_stats_breakdown[GLOBAL_ACC_W][HIT_RESERVED] = 0
	L2_cache_stats_breakdown[GLOBAL_ACC_W][MISS] = 16
	L2_cache_stats_breakdown[GLOBAL_ACC_W][RESERVATION_FAIL] = 0
	L2_cache_stats_breakdown[LOCAL_ACC_W][HIT] = 0
	L2_cache_stats_breakdown[LOCAL_ACC_W][HIT_RESERVED] = 0
	L2_cache_stats_breakdown[LOCAL_ACC_W][MISS] = 0
	L2_cache_stats_breakdown[LOCAL_ACC_W][RESERVATION_FAIL] = 0
	L2_cache_stats_breakdown[L1_WRBK_ACC][HIT] = 0
	L2_cache_stats_breakdown[L1_WRBK_ACC][HIT_RESERVED] = 0
	L2_cache_stats_breakdown[L1_WRBK_ACC][MISS] = 0
	L2_cache_stats_breakdown[L1_WRBK_ACC][RESERVATION_FAIL] = 0
	L2_cache_stats_breakdown[L2_WRBK_ACC][HIT] = 0
	L2_cache_stats_breakdown[L2_WRBK_ACC][HIT_RESERVED] = 0
	L2_cache_stats_breakdown[L2_WRBK_ACC][MISS] = 0
	L2_cache_stats_breakdown[L2_WRBK_ACC][RESERVATION_FAIL] = 0
	L2_cache_stats_breakdown[INST_ACC_R][HIT] = 0
	L2_cache_stats_breakdown[INST_ACC_R][HIT_RESERVED] = 81
	L2_cache_stats_breakdown[INST_ACC_R][MISS] = 4
	L2_cache_stats_breakdown[INST_ACC_R][RESERVATION_FAIL] = 0
	L2_cache_stats_breakdown[L1_WR_ALLOC_R][HIT] = 0
	L2_cache_stats_breakdown[L1_WR_ALLOC_R][HIT_RESERVED] = 0
	L2_cache_stats_breakdown[L1_WR_ALLOC_R][MISS] = 0
	L2_cache_stats_breakdown[L1_WR_ALLOC_R][RESERVATION_FAIL] = 0
	L2_cache_stats_breakdown[L2_WR_ALLOC_R][HIT] = 0
	L2_cache_stats_breakdown[L2_WR_ALLOC_R][HIT_RESERVED] = 0
	L2_cache_stats_breakdown[L2_WR_ALLOC_R][MISS] = 0
	L2_cache_stats_breakdown[L2_WR_ALLOC_R][RESERVATION_FAIL] = 0
	L2_cache_stats_breakdown[GLOBAL_ACC_R][TOTAL_ACCESS] = 2090
	L2_cache_stats_breakdown[CONST_ACC_R][TOTAL_ACCESS] = 28
	L2_cache_stats_breakdown[GLOBAL_ACC_W][TOTAL_ACCESS] = 17
	L2_cache_stats_breakdown[INST_ACC_R][TOTAL_ACCESS] = 85
L2_cache_data_port_util = 0.000
L2_cache_fill_port_util = 0.000

icnt_total_pkts_mem_to_simt=4706
icnt_total_pkts_simt_to_mem=2237
LD_mem_lat_dist  0 0 0 0 0 0 0 0 0 0 0 0 0 0 0 0 0 0 0 0 0 0 0 0 0 0 0
ST_mem_lat_dist  0 0 0 0 0 0 0 0 0 0 0 0 0 0 0 0 0 0 0 0 0 0 0 0 0 0 0
----------------------------Interconnect-DETAILS--------------------------------
Class 0:
Packet latency average = 31.2944
	minimum = 6
	maximum = 80
Network latency average = 19.2579
	minimum = 6
	maximum = 60
Slowest packet = 27
Flit latency average = 16.9113
	minimum = 6
	maximum = 60
Slowest flit = 27
Fragmentation average = 0
	minimum = 0
	maximum = 0
Injected packet rate average = 9.01483e-05
	minimum = 6.90324e-05 (at node 3)
	maximum = 0.000129943 (at node 1)
Accepted packet rate average = 9.01483e-05
	minimum = 6.90324e-05 (at node 3)
	maximum = 0.000129943 (at node 1)
Injected flit rate average = 0.000140968
	minimum = 6.90324e-05 (at node 3)
	maximum = 0.000340086 (at node 37)
Accepted flit rate average= 0.000140968
	minimum = 9.33968e-05 (at node 33)
	maximum = 0.000255826 (at node 1)
Injected packet length average = 1.56374
Accepted packet length average = 1.56374
Total in-flight flits = 0 (0 measured)
====== Overall Traffic Statistics ======
====== Traffic class 0 ======
Packet latency average = 31.2944 (1 samples)
	minimum = 6 (1 samples)
	maximum = 80 (1 samples)
Network latency average = 19.2579 (1 samples)
	minimum = 6 (1 samples)
	maximum = 60 (1 samples)
Flit latency average = 16.9113 (1 samples)
	minimum = 6 (1 samples)
	maximum = 60 (1 samples)
Fragmentation average = 0 (1 samples)
	minimum = 0 (1 samples)
	maximum = 0 (1 samples)
Injected packet rate average = 9.01483e-05 (1 samples)
	minimum = 6.90324e-05 (1 samples)
	maximum = 0.000129943 (1 samples)
Accepted packet rate average = 9.01483e-05 (1 samples)
	minimum = 6.90324e-05 (1 samples)
	maximum = 0.000129943 (1 samples)
Injected flit rate average = 0.000140968 (1 samples)
	minimum = 6.90324e-05 (1 samples)
	maximum = 0.000340086 (1 samples)
Accepted flit rate average = 0.000140968 (1 samples)
	minimum = 9.33968e-05 (1 samples)
	maximum = 0.000255826 (1 samples)
Injected packet size average = 1.56374 (1 samples)
Accepted packet size average = 1.56374 (1 samples)
Hops average = 1 (1 samples)
----------------------------END-of-Interconnect-DETAILS-------------------------


gpgpu_simulation_time = 0 days, 0 hrs, 14 min, 42 sec (882 sec)
gpgpu_simulation_rate = 1411 (inst/sec)
gpgpu_simulation_rate = 813 (cycle/sec)

GPGPU-Sim PTX: cudaLaunch for 0x0x401649 (mode=performance simulation) on stream 0
GPGPU-Sim PTX: pushing kernel '_Z7Kernel2PbS_S_S_i' to stream 0, gridDim= (128,1,1) blockDim = (512,1,1) 
GPGPU-Sim uArch: Shader 9 bind to kernel 2 '_Z7Kernel2PbS_S_S_i'
GPGPU-Sim uArch: CTA/core = 4, limited by: threads
GPGPU-Sim uArch: Shader 10 bind to kernel 2 '_Z7Kernel2PbS_S_S_i'
GPGPU-Sim uArch: Shader 11 bind to kernel 2 '_Z7Kernel2PbS_S_S_i'
GPGPU-Sim uArch: Shader 12 bind to kernel 2 '_Z7Kernel2PbS_S_S_i'
GPGPU-Sim uArch: Shader 13 bind to kernel 2 '_Z7Kernel2PbS_S_S_i'
GPGPU-Sim uArch: Shader 14 bind to kernel 2 '_Z7Kernel2PbS_S_S_i'
GPGPU-Sim uArch: Shader 15 bind to kernel 2 '_Z7Kernel2PbS_S_S_i'
GPGPU-Sim uArch: Shader 16 bind to kernel 2 '_Z7Kernel2PbS_S_S_i'
GPGPU-Sim uArch: Shader 17 bind to kernel 2 '_Z7Kernel2PbS_S_S_i'
GPGPU-Sim uArch: Shader 18 bind to kernel 2 '_Z7Kernel2PbS_S_S_i'
GPGPU-Sim uArch: Shader 19 bind to kernel 2 '_Z7Kernel2PbS_S_S_i'
GPGPU-Sim uArch: Shader 20 bind to kernel 2 '_Z7Kernel2PbS_S_S_i'
GPGPU-Sim uArch: Shader 21 bind to kernel 2 '_Z7Kernel2PbS_S_S_i'
GPGPU-Sim uArch: Shader 22 bind to kernel 2 '_Z7Kernel2PbS_S_S_i'
GPGPU-Sim uArch: Shader 23 bind to kernel 2 '_Z7Kernel2PbS_S_S_i'
GPGPU-Sim uArch: Shader 24 bind to kernel 2 '_Z7Kernel2PbS_S_S_i'
GPGPU-Sim uArch: Shader 25 bind to kernel 2 '_Z7Kernel2PbS_S_S_i'
GPGPU-Sim uArch: Shader 26 bind to kernel 2 '_Z7Kernel2PbS_S_S_i'
GPGPU-Sim uArch: Shader 27 bind to kernel 2 '_Z7Kernel2PbS_S_S_i'
GPGPU-Sim uArch: Shader 0 bind to kernel 2 '_Z7Kernel2PbS_S_S_i'
GPGPU-Sim uArch: Shader 1 bind to kernel 2 '_Z7Kernel2PbS_S_S_i'
GPGPU-Sim uArch: Shader 2 bind to kernel 2 '_Z7Kernel2PbS_S_S_i'
GPGPU-Sim uArch: Shader 3 bind to kernel 2 '_Z7Kernel2PbS_S_S_i'
GPGPU-Sim uArch: Shader 4 bind to kernel 2 '_Z7Kernel2PbS_S_S_i'
GPGPU-Sim uArch: Shader 5 bind to kernel 2 '_Z7Kernel2PbS_S_S_i'
GPGPU-Sim uArch: Shader 6 bind to kernel 2 '_Z7Kernel2PbS_S_S_i'
GPGPU-Sim uArch: Shader 7 bind to kernel 2 '_Z7Kernel2PbS_S_S_i'
GPGPU-Sim uArch: Shader 8 bind to kernel 2 '_Z7Kernel2PbS_S_S_i'
Destroy streams for kernel 2: size 0
kernel_name = _Z7Kernel2PbS_S_S_i 
kernel_launch_uid = 2 
gpu_sim_cycle = 1817
gpu_sim_insn = 1114192
gpu_ipc =     613.2042
gpu_tot_sim_cycle = 941176
gpu_tot_sim_insn = 2359568
gpu_tot_ipc =       2.5070
gpu_tot_issued_cta = 256
max_total_param_size = 0
gpu_stall_dramfull = 534
gpu_stall_icnt2sh    = 7797
partiton_reqs_in_parallel = 39479
partiton_reqs_in_parallel_total    = 10835467
partiton_level_parallism =      21.7276
partiton_level_parallism_total  =      11.5546
partiton_reqs_in_parallel_util = 39479
partiton_reqs_in_parallel_util_total    = 10835467
gpu_sim_cycle_parition_util = 1817
gpu_tot_sim_cycle_parition_util    = 492523
partiton_level_parallism_util =      21.7276
partiton_level_parallism_util_total  =      21.9989
partiton_replys_in_parallel = 2136
partiton_replys_in_parallel_total    = 2220
L2_BW  =     111.4247 GB/Sec
L2_BW_total  =       0.4387 GB/Sec
gpu_total_sim_rate=2648

========= Core cache stats =========
L1I_cache:
	L1I_total_cache_accesses = 43152
	L1I_total_cache_misses = 6299
	L1I_total_cache_miss_rate = 0.1460
	L1I_total_cache_pending_hits = 0
	L1I_total_cache_reservation_fails = 20082
L1D_cache:
	L1D_cache_core[0]: Access = 0, Miss = 0, Miss_rate = -nan, Pending_hits = 0, Reservation_fails = 0
	L1D_cache_core[1]: Access = 0, Miss = 0, Miss_rate = -nan, Pending_hits = 0, Reservation_fails = 0
	L1D_cache_core[2]: Access = 0, Miss = 0, Miss_rate = -nan, Pending_hits = 0, Reservation_fails = 0
	L1D_cache_core[3]: Access = 0, Miss = 0, Miss_rate = -nan, Pending_hits = 0, Reservation_fails = 0
	L1D_cache_core[4]: Access = 0, Miss = 0, Miss_rate = -nan, Pending_hits = 0, Reservation_fails = 0
	L1D_cache_core[5]: Access = 0, Miss = 0, Miss_rate = -nan, Pending_hits = 0, Reservation_fails = 0
	L1D_cache_core[6]: Access = 0, Miss = 0, Miss_rate = -nan, Pending_hits = 0, Reservation_fails = 0
	L1D_cache_core[7]: Access = 0, Miss = 0, Miss_rate = -nan, Pending_hits = 0, Reservation_fails = 0
	L1D_cache_core[8]: Access = 0, Miss = 0, Miss_rate = -nan, Pending_hits = 0, Reservation_fails = 0
	L1D_cache_core[9]: Access = 0, Miss = 0, Miss_rate = -nan, Pending_hits = 0, Reservation_fails = 0
	L1D_cache_core[10]: Access = 0, Miss = 0, Miss_rate = -nan, Pending_hits = 0, Reservation_fails = 0
	L1D_cache_core[11]: Access = 0, Miss = 0, Miss_rate = -nan, Pending_hits = 0, Reservation_fails = 0
	L1D_cache_core[12]: Access = 0, Miss = 0, Miss_rate = -nan, Pending_hits = 0, Reservation_fails = 0
	L1D_cache_core[13]: Access = 0, Miss = 0, Miss_rate = -nan, Pending_hits = 0, Reservation_fails = 0
	L1D_cache_core[14]: Access = 0, Miss = 0, Miss_rate = -nan, Pending_hits = 0, Reservation_fails = 0
	L1D_cache_core[15]: Access = 0, Miss = 0, Miss_rate = -nan, Pending_hits = 0, Reservation_fails = 0
	L1D_cache_core[16]: Access = 0, Miss = 0, Miss_rate = -nan, Pending_hits = 0, Reservation_fails = 0
	L1D_cache_core[17]: Access = 0, Miss = 0, Miss_rate = -nan, Pending_hits = 0, Reservation_fails = 0
	L1D_cache_core[18]: Access = 0, Miss = 0, Miss_rate = -nan, Pending_hits = 0, Reservation_fails = 0
	L1D_cache_core[19]: Access = 0, Miss = 0, Miss_rate = -nan, Pending_hits = 0, Reservation_fails = 0
	L1D_cache_core[20]: Access = 0, Miss = 0, Miss_rate = -nan, Pending_hits = 0, Reservation_fails = 0
	L1D_cache_core[21]: Access = 0, Miss = 0, Miss_rate = -nan, Pending_hits = 0, Reservation_fails = 0
	L1D_cache_core[22]: Access = 0, Miss = 0, Miss_rate = -nan, Pending_hits = 0, Reservation_fails = 0
	L1D_cache_core[23]: Access = 0, Miss = 0, Miss_rate = -nan, Pending_hits = 0, Reservation_fails = 0
	L1D_cache_core[24]: Access = 0, Miss = 0, Miss_rate = -nan, Pending_hits = 0, Reservation_fails = 0
	L1D_cache_core[25]: Access = 0, Miss = 0, Miss_rate = -nan, Pending_hits = 0, Reservation_fails = 0
	L1D_cache_core[26]: Access = 0, Miss = 0, Miss_rate = -nan, Pending_hits = 0, Reservation_fails = 0
	L1D_cache_core[27]: Access = 0, Miss = 0, Miss_rate = -nan, Pending_hits = 0, Reservation_fails = 0
	L1D_total_cache_accesses = 0
	L1D_total_cache_misses = 0
	L1D_total_cache_pending_hits = 0
	L1D_total_cache_reservation_fails = 0
	L1D_cache_data_port_util = 0.000
	L1D_cache_fill_port_util = 0.000
L1C_cache:
	L1C_total_cache_accesses = 24576
	L1C_total_cache_misses = 1792
	L1C_total_cache_miss_rate = 0.0729
	L1C_total_cache_pending_hits = 0
	L1C_total_cache_reservation_fails = 4886
L1T_cache:
	L1T_total_cache_accesses = 0
	L1T_total_cache_misses = 0
	L1T_total_cache_pending_hits = 0
	L1T_total_cache_reservation_fails = 0

Total_core_cache_stats:
	Total_core_cache_stats_breakdown[GLOBAL_ACC_R][HIT] = 0
	Total_core_cache_stats_breakdown[GLOBAL_ACC_R][HIT_RESERVED] = 0
	Total_core_cache_stats_breakdown[GLOBAL_ACC_R][MISS] = 0
	Total_core_cache_stats_breakdown[GLOBAL_ACC_R][RESERVATION_FAIL] = 0
	Total_core_cache_stats_breakdown[LOCAL_ACC_R][HIT] = 0
	Total_core_cache_stats_breakdown[LOCAL_ACC_R][HIT_RESERVED] = 0
	Total_core_cache_stats_breakdown[LOCAL_ACC_R][MISS] = 0
	Total_core_cache_stats_breakdown[LOCAL_ACC_R][RESERVATION_FAIL] = 0
	Total_core_cache_stats_breakdown[CONST_ACC_R][HIT] = 22784
	Total_core_cache_stats_breakdown[CONST_ACC_R][HIT_RESERVED] = 0
	Total_core_cache_stats_breakdown[CONST_ACC_R][MISS] = 1792
	Total_core_cache_stats_breakdown[CONST_ACC_R][RESERVATION_FAIL] = 4886
	Total_core_cache_stats_breakdown[TEXTURE_ACC_R][HIT] = 0
	Total_core_cache_stats_breakdown[TEXTURE_ACC_R][HIT_RESERVED] = 0
	Total_core_cache_stats_breakdown[TEXTURE_ACC_R][MISS] = 0
	Total_core_cache_stats_breakdown[TEXTURE_ACC_R][RESERVATION_FAIL] = 0
	Total_core_cache_stats_breakdown[GLOBAL_ACC_W][HIT] = 0
	Total_core_cache_stats_breakdown[GLOBAL_ACC_W][HIT_RESERVED] = 0
	Total_core_cache_stats_breakdown[GLOBAL_ACC_W][MISS] = 0
	Total_core_cache_stats_breakdown[GLOBAL_ACC_W][RESERVATION_FAIL] = 0
	Total_core_cache_stats_breakdown[LOCAL_ACC_W][HIT] = 0
	Total_core_cache_stats_breakdown[LOCAL_ACC_W][HIT_RESERVED] = 0
	Total_core_cache_stats_breakdown[LOCAL_ACC_W][MISS] = 0
	Total_core_cache_stats_breakdown[LOCAL_ACC_W][RESERVATION_FAIL] = 0
	Total_core_cache_stats_breakdown[L1_WRBK_ACC][HIT] = 0
	Total_core_cache_stats_breakdown[L1_WRBK_ACC][HIT_RESERVED] = 0
	Total_core_cache_stats_breakdown[L1_WRBK_ACC][MISS] = 0
	Total_core_cache_stats_breakdown[L1_WRBK_ACC][RESERVATION_FAIL] = 0
	Total_core_cache_stats_breakdown[L2_WRBK_ACC][HIT] = 0
	Total_core_cache_stats_breakdown[L2_WRBK_ACC][HIT_RESERVED] = 0
	Total_core_cache_stats_breakdown[L2_WRBK_ACC][MISS] = 0
	Total_core_cache_stats_breakdown[L2_WRBK_ACC][RESERVATION_FAIL] = 0
	Total_core_cache_stats_breakdown[INST_ACC_R][HIT] = 36853
	Total_core_cache_stats_breakdown[INST_ACC_R][HIT_RESERVED] = 0
	Total_core_cache_stats_breakdown[INST_ACC_R][MISS] = 6299
	Total_core_cache_stats_breakdown[INST_ACC_R][RESERVATION_FAIL] = 20082
	Total_core_cache_stats_breakdown[L1_WR_ALLOC_R][HIT] = 0
	Total_core_cache_stats_breakdown[L1_WR_ALLOC_R][HIT_RESERVED] = 0
	Total_core_cache_stats_breakdown[L1_WR_ALLOC_R][MISS] = 0
	Total_core_cache_stats_breakdown[L1_WR_ALLOC_R][RESERVATION_FAIL] = 0
	Total_core_cache_stats_breakdown[L2_WR_ALLOC_R][HIT] = 0
	Total_core_cache_stats_breakdown[L2_WR_ALLOC_R][HIT_RESERVED] = 0
	Total_core_cache_stats_breakdown[L2_WR_ALLOC_R][MISS] = 0
	Total_core_cache_stats_breakdown[L2_WR_ALLOC_R][RESERVATION_FAIL] = 0
	Total_core_cache_stats_breakdown[CONST_ACC_R][TOTAL_ACCESS] = 24576
	Total_core_cache_stats_breakdown[INST_ACC_R][TOTAL_ACCESS] = 43152
Shader 0 warp_id issue ditsribution:
warp_id:
0, 1, 2, 3, 4, 5, 6, 7, 8, 9, 10, 11, 12, 13, 14, 15, 16, 17, 18, 19, 20, 21, 22, 23, 24, 25, 26, 27, 28, 29, 30, 31, 32, 33, 34, 35, 36, 37, 38, 39, 40, 41, 42, 43, 44, 45, 46, 47, 48, 49, 50, 51, 52, 53, 54, 55, 56, 57, 58, 59, 60, 61, 62, 63, 
distro:
88, 88, 87, 88, 87, 88, 87, 88, 88, 88, 88, 88, 88, 88, 88, 88, 67, 67, 67, 67, 67, 67, 67, 67, 67, 67, 82, 67, 67, 67, 67, 67, 44, 44, 44, 44, 44, 44, 44, 44, 44, 44, 44, 44, 44, 44, 44, 44, 65, 65, 65, 65, 65, 65, 65, 65, 65, 65, 65, 65, 65, 65, 65, 65, 
gpgpu_n_tot_thrd_icount = 2499680
gpgpu_n_tot_w_icount = 78115
gpgpu_n_stall_shd_mem = 5505
gpgpu_n_mem_read_local = 0
gpgpu_n_mem_write_local = 0
gpgpu_n_mem_read_global = 4138
gpgpu_n_mem_write_global = 49
gpgpu_n_mem_texture = 0
gpgpu_n_mem_const = 28
gpgpu_n_load_insn  = 131114
gpgpu_n_store_insn = 49
gpgpu_n_shmem_insn = 0
gpgpu_n_tex_insn = 0
gpgpu_n_const_mem_insn = 0
gpgpu_n_param_mem_insn = 786432
gpgpu_n_shmem_bkconflict = 0
gpgpu_n_cache_bkconflict = 0
gpgpu_n_intrawarp_mshr_merge = 0
gpgpu_n_cmem_portconflict = 4886
gpgpu_stall_shd_mem[c_mem][bk_conf] = 4886
gpgpu_stall_shd_mem[c_mem][mshr_rc] = 0
gpgpu_stall_shd_mem[c_mem][icnt_rc] = 0
gpgpu_stall_shd_mem[c_mem][data_port_stall] = 0
gpgpu_stall_shd_mem[t_mem][mshr_rc] = 0
gpgpu_stall_shd_mem[t_mem][icnt_rc] = 0
gpgpu_stall_shd_mem[t_mem][data_port_stall] = 0
gpgpu_stall_shd_mem[s_mem][bk_conf] = 0
gpgpu_stall_shd_mem[gl_mem][bk_conf] = 0
gpgpu_stall_shd_mem[gl_mem][coal_stall] = 0
gpgpu_stall_shd_mem[gl_mem][data_port_stall] = 0
gpgpu_stall_shd_mem[g_mem_ld][mshr_rc] = 0
gpgpu_stall_shd_mem[g_mem_ld][icnt_rc] = 619
gpgpu_stall_shd_mem[g_mem_ld][wb_icnt_rc] = 0
gpgpu_stall_shd_mem[g_mem_ld][wb_rsrv_fail] = 0
gpgpu_stall_shd_mem[g_mem_st][mshr_rc] = 0
gpgpu_stall_shd_mem[g_mem_st][icnt_rc] = 0
gpgpu_stall_shd_mem[g_mem_st][wb_icnt_rc] = 0
gpgpu_stall_shd_mem[g_mem_st][wb_rsrv_fail] = 0
gpgpu_stall_shd_mem[l_mem_ld][mshr_rc] = 0
gpgpu_stall_shd_mem[l_mem_ld][icnt_rc] = 0
gpgpu_stall_shd_mem[l_mem_ld][wb_icnt_rc] = 0
gpgpu_stall_shd_mem[l_mem_ld][wb_rsrv_fail] = 0
gpgpu_stall_shd_mem[l_mem_st][mshr_rc] = 0
gpgpu_stall_shd_mem[l_mem_st][icnt_rc] = 0
gpgpu_stall_shd_mem[l_mem_ld][wb_icnt_rc] = 0
gpgpu_stall_shd_mem[l_mem_ld][wb_rsrv_fail] = 0
gpu_reg_bank_conflict_stalls = 0
Warp Occupancy Distribution:
Stall:20361	W0_Idle:297454	W0_Scoreboard:13843766	W1:291	W2:0	W3:0	W4:0	W5:0	W6:0	W7:0	W8:0	W9:0	W10:0	W11:0	W12:0	W13:0	W14:0	W15:0	W16:0	W17:0	W18:0	W19:0	W20:0	W21:0	W22:0	W23:0	W24:0	W25:0	W26:0	W27:0	W28:0	W29:0	W30:0	W31:0	W32:77824
traffic_breakdown_coretomem[CONST_ACC_R] = 224 {8:28,}
[...]
	L2_cache_stats_breakdown[CONST_ACC_R][RESERVATION_FAIL] = 0
	L2_cache_stats_breakdown[TEXTURE_ACC_R][HIT] = 0
	L2_cache_stats_breakdown[TEXTURE_ACC_R][HIT_RESERVED] = 0
	L2_cache_stats_breakdown[TEXTURE_ACC_R][MISS] = 0
	L2_cache_stats_breakdown[TEXTURE_ACC_R][RESERVATION_FAIL] = 0
	L2_cache_stats_breakdown[GLOBAL_ACC_W][HIT] = 293137
	L2_cache_stats_breakdown[GLOBAL_ACC_W][HIT_RESERVED] = 117
	L2_cache_stats_breakdown[GLOBAL_ACC_W][MISS] = 2056
	L2_cache_stats_breakdown[GLOBAL_ACC_W][RESERVATION_FAIL] = 1
	L2_cache_stats_breakdown[LOCAL_ACC_W][HIT] = 0
	L2_cache_stats_breakdown[LOCAL_ACC_W][HIT_RESERVED] = 0
	L2_cache_stats_breakdown[LOCAL_ACC_W][MISS] = 0
	L2_cache_stats_breakdown[LOCAL_ACC_W][RESERVATION_FAIL] = 0
	L2_cache_stats_breakdown[L1_WRBK_ACC][HIT] = 0
	L2_cache_stats_breakdown[L1_WRBK_ACC][HIT_RESERVED] = 0
	L2_cache_stats_breakdown[L1_WRBK_ACC][MISS] = 0
	L2_cache_stats_breakdown[L1_WRBK_ACC][RESERVATION_FAIL] = 0
	L2_cache_stats_breakdown[L2_WRBK_ACC][HIT] = 0
	L2_cache_stats_breakdown[L2_WRBK_ACC][HIT_RESERVED] = 0
	L2_cache_stats_breakdown[L2_WRBK_ACC][MISS] = 0
	L2_cache_stats_breakdown[L2_WRBK_ACC][RESERVATION_FAIL] = 0
	L2_cache_stats_breakdown[INST_ACC_R][HIT] = 41
	L2_cache_stats_breakdown[INST_ACC_R][HIT_RESERVED] = 121
	L2_cache_stats_breakdown[INST_ACC_R][MISS] = 6
	L2_cache_stats_breakdown[INST_ACC_R][RESERVATION_FAIL] = 0
	L2_cache_stats_breakdown[L1_WR_ALLOC_R][HIT] = 0
	L2_cache_stats_breakdown[L1_WR_ALLOC_R][HIT_RESERVED] = 0
	L2_cache_stats_breakdown[L1_WR_ALLOC_R][MISS] = 0
	L2_cache_stats_breakdown[L1_WR_ALLOC_R][RESERVATION_FAIL] = 0
	L2_cache_stats_breakdown[L2_WR_ALLOC_R][HIT] = 0
	L2_cache_stats_breakdown[L2_WR_ALLOC_R][HIT_RESERVED] = 0
	L2_cache_stats_breakdown[L2_WR_ALLOC_R][MISS] = 0
	L2_cache_stats_breakdown[L2_WR_ALLOC_R][RESERVATION_FAIL] = 0
	L2_cache_stats_breakdown[GLOBAL_ACC_R][TOTAL_ACCESS] = 891774
	L2_cache_stats_breakdown[CONST_ACC_R][TOTAL_ACCESS] = 28
	L2_cache_stats_breakdown[GLOBAL_ACC_W][TOTAL_ACCESS] = 295310
	L2_cache_stats_breakdown[INST_ACC_R][TOTAL_ACCESS] = 168
L2_cache_data_port_util = 0.100
L2_cache_fill_port_util = 0.005

icnt_total_pkts_mem_to_simt=2597859
icnt_total_pkts_simt_to_mem=1482717
LD_mem_lat_dist  0 0 0 0 0 0 0 0 0 0 0 0 0 0 0 0 0 0 0 0 0 0 0 0 0 0 0
ST_mem_lat_dist  0 0 0 0 0 0 0 0 0 0 0 0 0 0 0 0 0 0 0 0 0 0 0 0 0 0 0
----------------------------Interconnect-DETAILS--------------------------------
Class 0:
Packet latency average = 8.56323
	minimum = 6
	maximum = 29
Network latency average = 8.45703
	minimum = 6
	maximum = 24
Slowest packet = 2371512
Flit latency average = 8.17708
	minimum = 6
	maximum = 23
Slowest flit = 4077162
Fragmentation average = 0
	minimum = 0
	maximum = 0
Injected packet rate average = 0.0422704
	minimum = 0.0330237 (at node 4)
	maximum = 0.0495356 (at node 40)
Accepted packet rate average = 0.0422704
	minimum = 0.0330237 (at node 4)
	maximum = 0.0495356 (at node 40)
Injected flit rate average = 0.0634056
	minimum = 0.0330237 (at node 4)
	maximum = 0.0990712 (at node 40)
Accepted flit rate average= 0.0634056
	minimum = 0.0474716 (at node 28)
	maximum = 0.0825593 (at node 0)
Injected packet length average = 1.5
Accepted packet length average = 1.5
Total in-flight flits = 0 (0 measured)
====== Overall Traffic Statistics ======
====== Traffic class 0 ======
Packet latency average = 36.5463 (20 samples)
	minimum = 6 (20 samples)
	maximum = 304.95 (20 samples)
Network latency average = 21.9318 (20 samples)
	minimum = 6 (20 samples)
	maximum = 230.95 (20 samples)
Flit latency average = 22.5315 (20 samples)
	minimum = 6 (20 samples)
	maximum = 230.35 (20 samples)
Fragmentation average = 0.00857333 (20 samples)
	minimum = 0 (20 samples)
	maximum = 79.75 (20 samples)
Injected packet rate average = 0.0471326 (20 samples)
	minimum = 0.0350295 (20 samples)
	maximum = 0.113964 (20 samples)
Accepted packet rate average = 0.0471326 (20 samples)
	minimum = 0.0350295 (20 samples)
	maximum = 0.113964 (20 samples)
Injected flit rate average = 0.0751352 (20 samples)
	minimum = 0.0435528 (20 samples)
	maximum = 0.164315 (20 samples)
Accepted flit rate average = 0.0751352 (20 samples)
	minimum = 0.0551718 (20 samples)
	maximum = 0.216209 (20 samples)
Injected packet size average = 1.59413 (20 samples)
Accepted packet size average = 1.59413 (20 samples)
Hops average = 1 (20 samples)
----------------------------END-of-Interconnect-DETAILS-------------------------


gpgpu_simulation_time = 0 days, 0 hrs, 33 min, 29 sec (2009 sec)
gpgpu_simulation_rate = 15704 (inst/sec)
gpgpu_simulation_rate = 2611 (cycle/sec)
Kernel Executed 10 times
Result stored in result.txt
========================================UVM statistics==============================
========================================TLB statistics(access)==============================
Shader0: Tlb_access: 39405 Tlb_hit: 39340 Tlb_miss: 65 Tlb_hit_rate: 0.998350
Shader1: Tlb_access: 44674 Tlb_hit: 44609 Tlb_miss: 65 Tlb_hit_rate: 0.998545
Shader2: Tlb_access: 41405 Tlb_hit: 41340 Tlb_miss: 65 Tlb_hit_rate: 0.998430
Shader3: Tlb_access: 39165 Tlb_hit: 39100 Tlb_miss: 65 Tlb_hit_rate: 0.998340
Shader4: Tlb_access: 41487 Tlb_hit: 41422 Tlb_miss: 65 Tlb_hit_rate: 0.998433
Shader5: Tlb_access: 39991 Tlb_hit: 39926 Tlb_miss: 65 Tlb_hit_rate: 0.998375
Shader6: Tlb_access: 40267 Tlb_hit: 40202 Tlb_miss: 65 Tlb_hit_rate: 0.998386
Shader7: Tlb_access: 39998 Tlb_hit: 39932 Tlb_miss: 66 Tlb_hit_rate: 0.998350
Shader8: Tlb_access: 43108 Tlb_hit: 43043 Tlb_miss: 65 Tlb_hit_rate: 0.998492
Shader9: Tlb_access: 39906 Tlb_hit: 39841 Tlb_miss: 65 Tlb_hit_rate: 0.998371
Shader10: Tlb_access: 42070 Tlb_hit: 42004 Tlb_miss: 66 Tlb_hit_rate: 0.998431
Shader11: Tlb_access: 43719 Tlb_hit: 43653 Tlb_miss: 66 Tlb_hit_rate: 0.998490
Shader12: Tlb_access: 39013 Tlb_hit: 38948 Tlb_miss: 65 Tlb_hit_rate: 0.998334
Shader13: Tlb_access: 43601 Tlb_hit: 43536 Tlb_miss: 65 Tlb_hit_rate: 0.998509
Shader14: Tlb_access: 43746 Tlb_hit: 43679 Tlb_miss: 67 Tlb_hit_rate: 0.998468
Shader15: Tlb_access: 40039 Tlb_hit: 39974 Tlb_miss: 65 Tlb_hit_rate: 0.998377
Shader16: Tlb_access: 43156 Tlb_hit: 43091 Tlb_miss: 65 Tlb_hit_rate: 0.998494
Shader17: Tlb_access: 41892 Tlb_hit: 41827 Tlb_miss: 65 Tlb_hit_rate: 0.998448
Shader18: Tlb_access: 44893 Tlb_hit: 44828 Tlb_miss: 65 Tlb_hit_rate: 0.998552
Shader19: Tlb_access: 43807 Tlb_hit: 43742 Tlb_miss: 65 Tlb_hit_rate: 0.998516
Shader20: Tlb_access: 43620 Tlb_hit: 43555 Tlb_miss: 65 Tlb_hit_rate: 0.998510
Shader21: Tlb_access: 44959 Tlb_hit: 44892 Tlb_miss: 67 Tlb_hit_rate: 0.998510
Shader22: Tlb_access: 42668 Tlb_hit: 42603 Tlb_miss: 65 Tlb_hit_rate: 0.998477
Shader23: Tlb_access: 44569 Tlb_hit: 44504 Tlb_miss: 65 Tlb_hit_rate: 0.998542
Shader24: Tlb_access: 41766 Tlb_hit: 41701 Tlb_miss: 65 Tlb_hit_rate: 0.998444
Shader25: Tlb_access: 44507 Tlb_hit: 44442 Tlb_miss: 65 Tlb_hit_rate: 0.998540
Shader26: Tlb_access: 41609 Tlb_hit: 41544 Tlb_miss: 65 Tlb_hit_rate: 0.998438
Shader27: Tlb_access: 39687 Tlb_hit: 39621 Tlb_miss: 66 Tlb_hit_rate: 0.998337
Tlb_tot_access: 1178727 Tlb_tot_hit: 1176899, Tlb_tot_miss: 1828, Tlb_tot_hit_rate: 0.998449
========================================TLB statistics(validate)==============================
Shader0: Tlb_validate: 2 Tlb_invalidate: 2 Tlb_evict: 0 Tlb_page_evict: 2
Shader1: Tlb_validate: 2 Tlb_invalidate: 2 Tlb_evict: 0 Tlb_page_evict: 2
Shader2: Tlb_validate: 2 Tlb_invalidate: 2 Tlb_evict: 0 Tlb_page_evict: 2
Shader3: Tlb_validate: 2 Tlb_invalidate: 2 Tlb_evict: 0 Tlb_page_evict: 2
Shader4: Tlb_validate: 2 Tlb_invalidate: 2 Tlb_evict: 0 Tlb_page_evict: 2
Shader5: Tlb_validate: 2 Tlb_invalidate: 2 Tlb_evict: 0 Tlb_page_evict: 2
Shader6: Tlb_validate: 2 Tlb_invalidate: 2 Tlb_evict: 0 Tlb_page_evict: 2
Shader7: Tlb_validate: 2 Tlb_invalidate: 2 Tlb_evict: 0 Tlb_page_evict: 2
Shader8: Tlb_validate: 2 Tlb_invalidate: 2 Tlb_evict: 0 Tlb_page_evict: 2
Shader9: Tlb_validate: 2 Tlb_invalidate: 2 Tlb_evict: 0 Tlb_page_evict: 2
Shader10: Tlb_validate: 2 Tlb_invalidate: 2 Tlb_evict: 0 Tlb_page_evict: 2
Shader11: Tlb_validate: 2 Tlb_invalidate: 2 Tlb_evict: 0 Tlb_page_evict: 2
Shader12: Tlb_validate: 2 Tlb_invalidate: 2 Tlb_evict: 0 Tlb_page_evict: 2
Shader13: Tlb_validate: 2 Tlb_invalidate: 2 Tlb_evict: 0 Tlb_page_evict: 2
Shader14: Tlb_validate: 2 Tlb_invalidate: 2 Tlb_evict: 0 Tlb_page_evict: 2
Shader15: Tlb_validate: 2 Tlb_invalidate: 2 Tlb_evict: 0 Tlb_page_evict: 2
Shader16: Tlb_validate: 2 Tlb_invalidate: 2 Tlb_evict: 0 Tlb_page_evict: 2
Shader17: Tlb_validate: 2 Tlb_invalidate: 2 Tlb_evict: 0 Tlb_page_evict: 2
Shader18: Tlb_validate: 2 Tlb_invalidate: 2 Tlb_evict: 0 Tlb_page_evict: 2
Shader19: Tlb_validate: 2 Tlb_invalidate: 2 Tlb_evict: 0 Tlb_page_evict: 2
Shader20: Tlb_validate: 2 Tlb_invalidate: 2 Tlb_evict: 0 Tlb_page_evict: 2
Shader21: Tlb_validate: 2 Tlb_invalidate: 2 Tlb_evict: 0 Tlb_page_evict: 2
Shader22: Tlb_validate: 2 Tlb_invalidate: 2 Tlb_evict: 0 Tlb_page_evict: 2
Shader23: Tlb_validate: 2 Tlb_invalidate: 2 Tlb_evict: 0 Tlb_page_evict: 2
Shader24: Tlb_validate: 2 Tlb_invalidate: 2 Tlb_evict: 0 Tlb_page_evict: 2
Shader25: Tlb_validate: 2 Tlb_invalidate: 2 Tlb_evict: 0 Tlb_page_evict: 2
Shader26: Tlb_validate: 2 Tlb_invalidate: 2 Tlb_evict: 0 Tlb_page_evict: 2
Shader27: Tlb_validate: 2 Tlb_invalidate: 2 Tlb_evict: 0 Tlb_page_evict: 2
Tlb_tot_valiate: 56 Tlb_invalidate: 56, Tlb_tot_evict: 0, Tlb_tot_evict page: 56
========================================TLB statistics(threshing)==============================
Shader0: Total 0
Shader1: Total 0
Shader2: Total 0
Shader3: Total 0
Shader4: Total 0
Shader5: Total 0
Shader6: Total 0
Shader7: Total 0
Shader8: Total 0
Shader9: Total 0
Shader10: Total 0
Shader11: Total 0
Shader12: Total 0
Shader13: Total 0
Shader14: Total 0
Shader15: Total 0
Shader16: Total 0
Shader17: Total 0
Shader18: Total 0
Shader19: Total 0
Shader20: Total 0
Shader21: Total 0
Shader22: Total 0
Shader23: Total 0
Shader24: Total 0
Shader25: Total 0
Shader26: Total 0
Shader27: Total 0
Tlb_tot_thresh: 0
========================================Page fault statistics==============================
Shader0: Page_table_access:65 Page_hit: 1 Page_miss: 64 Page_hit_rate: 0.015385 Page_fault: 1 Page_pending: 63
Shader1: Page_table_access:65 Page_hit: 0 Page_miss: 65 Page_hit_rate: 0.000000 Page_fault: 1 Page_pending: 64
Shader2: Page_table_access:65 Page_hit: 1 Page_miss: 64 Page_hit_rate: 0.015385 Page_fault: 0 Page_pending: 64
Shader3: Page_table_access:65 Page_hit: 1 Page_miss: 64 Page_hit_rate: 0.015385 Page_fault: 0 Page_pending: 64
Shader4: Page_table_access:65 Page_hit: 1 Page_miss: 64 Page_hit_rate: 0.015385 Page_fault: 0 Page_pending: 64
Shader5: Page_table_access:65 Page_hit: 1 Page_miss: 64 Page_hit_rate: 0.015385 Page_fault: 0 Page_pending: 64
Shader6: Page_table_access:65 Page_hit: 1 Page_miss: 64 Page_hit_rate: 0.015385 Page_fault: 0 Page_pending: 64
Shader7: Page_table_access:66 Page_hit: 2 Page_miss: 64 Page_hit_rate: 0.030303 Page_fault: 0 Page_pending: 64
Shader8: Page_table_access:65 Page_hit: 1 Page_miss: 64 Page_hit_rate: 0.015385 Page_fault: 0 Page_pending: 64
Shader9: Page_table_access:65 Page_hit: 1 Page_miss: 64 Page_hit_rate: 0.015385 Page_fault: 0 Page_pending: 64
Shader10: Page_table_access:66 Page_hit: 2 Page_miss: 64 Page_hit_rate: 0.030303 Page_fault: 0 Page_pending: 64
Shader11: Page_table_access:66 Page_hit: 2 Page_miss: 64 Page_hit_rate: 0.030303 Page_fault: 0 Page_pending: 64
Shader12: Page_table_access:65 Page_hit: 1 Page_miss: 64 Page_hit_rate: 0.015385 Page_fault: 0 Page_pending: 64
Shader13: Page_table_access:65 Page_hit: 1 Page_miss: 64 Page_hit_rate: 0.015385 Page_fault: 0 Page_pending: 64
Shader14: Page_table_access:67 Page_hit: 3 Page_miss: 64 Page_hit_rate: 0.044776 Page_fault: 0 Page_pending: 64
Shader15: Page_table_access:65 Page_hit: 1 Page_miss: 64 Page_hit_rate: 0.015385 Page_fault: 0 Page_pending: 64
Shader16: Page_table_access:65 Page_hit: 1 Page_miss: 64 Page_hit_rate: 0.015385 Page_fault: 0 Page_pending: 64
Shader17: Page_table_access:65 Page_hit: 1 Page_miss: 64 Page_hit_rate: 0.015385 Page_fault: 0 Page_pending: 64
Shader18: Page_table_access:65 Page_hit: 1 Page_miss: 64 Page_hit_rate: 0.015385 Page_fault: 0 Page_pending: 64
Shader19: Page_table_access:65 Page_hit: 1 Page_miss: 64 Page_hit_rate: 0.015385 Page_fault: 0 Page_pending: 64
Shader20: Page_table_access:65 Page_hit: 1 Page_miss: 64 Page_hit_rate: 0.015385 Page_fault: 0 Page_pending: 64
Shader21: Page_table_access:67 Page_hit: 3 Page_miss: 64 Page_hit_rate: 0.044776 Page_fault: 0 Page_pending: 64
Shader22: Page_table_access:65 Page_hit: 1 Page_miss: 64 Page_hit_rate: 0.015385 Page_fault: 0 Page_pending: 64
Shader23: Page_table_access:65 Page_hit: 1 Page_miss: 64 Page_hit_rate: 0.015385 Page_fault: 0 Page_pending: 64
Shader24: Page_table_access:65 Page_hit: 1 Page_miss: 64 Page_hit_rate: 0.015385 Page_fault: 0 Page_pending: 64
Shader25: Page_table_access:65 Page_hit: 1 Page_miss: 64 Page_hit_rate: 0.015385 Page_fault: 0 Page_pending: 64
Shader26: Page_table_access:65 Page_hit: 1 Page_miss: 64 Page_hit_rate: 0.015385 Page_fault: 0 Page_pending: 64
Shader27: Page_table_access:66 Page_hit: 2 Page_miss: 64 Page_hit_rate: 0.030303 Page_fault: 0 Page_pending: 64
Page_talbe_tot_access: 1828 Page_tot_hit: 35, Page_tot_miss 1793, Page_tot_hit_rate: 0.019147 Page_tot_fault: 2 Page_tot_pending: 1791
Total_memory_access_page_fault: 2, Average_latency: 589528.500000
========================================Page threshing statistics==============================
Page_validate: 2 Page_evict_diry: 0 Page_evict_not_diry: 0
Page_tot_thresh: 0
========================================Memory access statistics==============================
========================================Prefetch statistics==============================
Tot_page_hit: 0, Tot_page_miss: 0, Tot_page_fault: 0
Avg_page_latency: 0.000000, Avg_prefetch_size: -nan, Avg_prefetch_latency: 0.000000
========================================PCI-e statistics==============================
Pcie_read_utilization: 0.749163
[0-25]: 0.000000, [26-50]: 0.000000, [51-75]: 1.000000, [76-100]: 0.000000
Pcie_write_utilization: 0.000000
[0-25]: -nan, [26-50]: -nan, [51-75]: -nan, [76-100]: -nan
F:        0----T:     2535 	 St: 80000000 Sz: 1 	 Sm: 0 	 T: memcpy_h2d(1.711681)
F:   224686----T:   717209 	 	 	 Kl: 1 	 Sm: 0 	 T: kernel_launch(332.561096)
F:   225575----T:   467655 	 St: c0000000 Sz: 2097152 	 Sm: 0 	 T: memcpy_h2d(163.457123)
F:   469322----T:   711402 	 St: c0200000 Sz: 2097152 	 Sm: 0 	 T: memcpy_h2d(163.457123)
F:   939359----T:   941176 	 	 	 Kl: 2 	 Sm: 0 	 T: kernel_launch(1.226874)
F:   941176----T:   943711 	 St: 80000000 Sz: 1 	 Sm: 0 	 T: memcpy_d2h(1.711681)
F:   943712----T:   946247 	 St: 80000000 Sz: 1 	 Sm: 0 	 T: memcpy_h2d(1.711681)
F:  1168398----T:  1177508 	 	 	 Kl: 3 	 Sm: 0 	 T: kernel_launch(6.151249)
F:  1399658----T:  1400787 	 	 	 Kl: 4 	 Sm: 0 	 T: kernel_launch(0.762323)
F:  1400787----T:  1403322 	 St: 80000000 Sz: 1 	 Sm: 0 	 T: memcpy_d2h(1.711681)
F:  1403323----T:  1405858 	 St: 80000000 Sz: 1 	 Sm: 0 	 T: memcpy_h2d(1.711681)
F:  1628009----T:  1639048 	 	 	 Kl: 5 	 Sm: 0 	 T: kernel_launch(7.453747)
F:  1861198----T:  1862481 	 	 	 Kl: 6 	 Sm: 0 	 T: kernel_launch(0.866307)
F:  1862481----T:  1865016 	 St: 80000000 Sz: 1 	 Sm: 0 	 T: memcpy_d2h(1.711681)
F:  1865017----T:  1867552 	 St: 80000000 Sz: 1 	 Sm: 0 	 T: memcpy_h2d(1.711681)
F:  2089703----T:  2101067 	 	 	 Kl: 7 	 Sm: 0 	 T: kernel_launch(7.673194)
F:  2323217----T:  2326162 	 	 	 Kl: 8 	 Sm: 0 	 T: kernel_launch(1.988521)
F:  2326162----T:  2328697 	 St: 80000000 Sz: 1 	 Sm: 0 	 T: memcpy_d2h(1.711681)
F:  2328698----T:  2331233 	 St: 80000000 Sz: 1 	 Sm: 0 	 T: memcpy_h2d(1.711681)
F:  2553384----T:  2573667 	 	 	 Kl: 9 	 Sm: 0 	 T: kernel_launch(13.695476)
F:  2795817----T:  2800094 	 	 	 Kl: 10 	 Sm: 0 	 T: kernel_launch(2.887913)
F:  2800094----T:  2802629 	 St: 80000000 Sz: 1 	 Sm: 0 	 T: memcpy_d2h(1.711681)
F:  2802630----T:  2805165 	 St: 80000000 Sz: 1 	 Sm: 0 	 T: memcpy_h2d(1.711681)
F:  3027316----T:  3084047 	 	 	 Kl: 11 	 Sm: 0 	 T: kernel_launch(38.305874)
F:  3306197----T:  3310536 	 	 	 Kl: 12 	 Sm: 0 	 T: kernel_launch(2.929777)
F:  3310536----T:  3313071 	 St: 80000000 Sz: 1 	 Sm: 0 	 T: memcpy_d2h(1.711681)
F:  3313072----T:  3315607 	 St: 80000000 Sz: 1 	 Sm: 0 	 T: memcpy_h2d(1.711681)
F:  3537758----T:  3626523 	 	 	 Kl: 13 	 Sm: 0 	 T: kernel_launch(59.935856)
F:  3848673----T:  3852966 	 	 	 Kl: 14 	 Sm: 0 	 T: kernel_launch(2.898717)
F:  3852966----T:  3855501 	 St: 80000000 Sz: 1 	 Sm: 0 	 T: memcpy_d2h(1.711681)
F:  3855502----T:  3858037 	 St: 80000000 Sz: 1 	 Sm: 0 	 T: memcpy_h2d(1.711681)
F:  4080188----T:  4113933 	 	 	 Kl: 15 	 Sm: 0 	 T: kernel_launch(22.785280)
F:  4336083----T:  4338143 	 	 	 Kl: 16 	 Sm: 0 	 T: kernel_launch(1.390952)
F:  4338143----T:  4340678 	 St: 80000000 Sz: 1 	 Sm: 0 	 T: memcpy_d2h(1.711681)
F:  4340679----T:  4343214 	 St: 80000000 Sz: 1 	 Sm: 0 	 T: memcpy_h2d(1.711681)
F:  4565365----T:  4570324 	 	 	 Kl: 17 	 Sm: 0 	 T: kernel_launch(3.348413)
F:  4792474----T:  4793568 	 	 	 Kl: 18 	 Sm: 0 	 T: kernel_launch(0.738690)
F:  4793568----T:  4796103 	 St: 80000000 Sz: 1 	 Sm: 0 	 T: memcpy_d2h(1.711681)
F:  4796104----T:  4798639 	 St: 80000000 Sz: 1 	 Sm: 0 	 T: memcpy_h2d(1.711681)
F:  5020790----T:  5022816 	 	 	 Kl: 19 	 Sm: 0 	 T: kernel_launch(1.367995)
F:  5244966----T:  5245936 	 	 	 Kl: 20 	 Sm: 0 	 T: kernel_launch(0.654963)
F:  5245936----T:  5248471 	 St: 80000000 Sz: 1 	 Sm: 0 	 T: memcpy_d2h(1.711681)
F:  5248472----T:  5251077 	 St: 0 Sz: 4096 	 Sm: 0 	 T: device_sync(1.758947)
F:  5248472----T:  5256712 	 St: 0 Sz: 61440 	 Sm: 0 	 T: device_sync(5.563808)
F:  5259317----T:  5261922 	 St: 0 Sz: 4096 	 Sm: 0 	 T: device_sync(1.758947)
F:  5259317----T:  5267557 	 St: 0 Sz: 61440 	 Sm: 0 	 T: device_sync(5.563808)
F:  5270162----T:  5272767 	 St: 0 Sz: 4096 	 Sm: 0 	 T: device_sync(1.758947)
F:  5270162----T:  5285857 	 St: 0 Sz: 126976 	 Sm: 0 	 T: device_sync(10.597569)
F:  5288462----T:  5291067 	 St: 0 Sz: 4096 	 Sm: 0 	 T: device_sync(1.758947)
F:  5288462----T:  5319185 	 St: 0 Sz: 258048 	 Sm: 0 	 T: device_sync(20.744766)
F:  5321790----T:  5324395 	 St: 0 Sz: 4096 	 Sm: 0 	 T: device_sync(1.758947)
F:  5321790----T:  5382626 	 St: 0 Sz: 520192 	 Sm: 0 	 T: device_sync(41.077652)
F:  5385231----T:  5387836 	 St: 0 Sz: 4096 	 Sm: 0 	 T: device_sync(1.758947)
F:  5385231----T:  5506320 	 St: 0 Sz: 1044480 	 Sm: 0 	 T: device_sync(81.761650)
F:  5508925----T:  5511530 	 St: 0 Sz: 4096 	 Sm: 0 	 T: device_sync(1.758947)
F:  5508925----T:  5517165 	 St: 0 Sz: 61440 	 Sm: 0 	 T: device_sync(5.563808)
F:  5519770----T:  5522375 	 St: 0 Sz: 4096 	 Sm: 0 	 T: device_sync(1.758947)
F:  5519770----T:  5528010 	 St: 0 Sz: 61440 	 Sm: 0 	 T: device_sync(5.563808)
F:  5530615----T:  5533220 	 St: 0 Sz: 4096 	 Sm: 0 	 T: device_sync(1.758947)
F:  5530615----T:  5546310 	 St: 0 Sz: 126976 	 Sm: 0 	 T: device_sync(10.597569)
F:  5548915----T:  5551520 	 St: 0 Sz: 4096 	 Sm: 0 	 T: device_sync(1.758947)
F:  5548915----T:  5579638 	 St: 0 Sz: 258048 	 Sm: 0 	 T: device_sync(20.744766)
F:  5582243----T:  5584848 	 St: 0 Sz: 4096 	 Sm: 0 	 T: device_sync(1.758947)
F:  5582243----T:  5643079 	 St: 0 Sz: 520192 	 Sm: 0 	 T: device_sync(41.077652)
F:  5645684----T:  5648289 	 St: 0 Sz: 4096 	 Sm: 0 	 T: device_sync(1.758947)
F:  5645684----T:  5766773 	 St: 0 Sz: 1044480 	 Sm: 0 	 T: device_sync(81.761650)
Tot_prefetch_time: 0(cycle), 0.000000(us)
Tot_kernel_exec_time: 754752(cycle), 509.623230(us)
Tot_kernel_exec_time_and_fault_time: 888042(cycle), 599.623230(us)
Tot_memcpy_h2d_time: 509510(cycle), 344.031067(us)
Tot_memcpy_d2h_time: 25350(cycle), 17.116814(us)
Tot_memcpy_time: 534860(cycle), 361.147888(us)
Tot_devicesync_time: 520906(cycle), 351.725861(us)
Tot_writeback_time: 0(cycle), 0.000000(us)
Tot_memcpy_d2h_sync_wb_time: 546256(cycle), 368.842682(us)
GPGPU-Sim: *** exit detected ***
