

        *** GPGPU-Sim Simulator Version 3.2.2  [build gpgpu-sim_git-commit-19dcacd83a954f67f20a2e1f31b081ed5ddcd3ae_modified_1 1 benchmarks/Managed/backprop/run 1 1 benchmarks/Managed/srad_v2/run 1 1 benchmarks/Managed/stencil/run 3 3 configs/GeForceGTX1080Ti/gpgpusim.config 5 3 src/gpgpu-sim/gpu-sim.cc 2 2 src/gpgpusim_entrypoint.cc 0] ***


GPGPU-Sim PTX: simulation mode 0 (can change with PTX_SIM_MODE_FUNC environment variable:
               1=functional simulation only, 0=detailed performance simulator)
GPGPU-Sim: Configuration options:

-network_mode                           1 # Interconnection network mode
-inter_config_file   config_fermi_islip.icnt # Interconnection network config file
-gpgpu_ptx_use_cuobjdump                    1 # Use cuobjdump to extract ptx and sass from binaries
-gpgpu_experimental_lib_support                    0 # Try to extract code from cuda libraries [Broken because of unknown cudaGetExportTable]
-gpgpu_ptx_convert_to_ptxplus                    0 # Convert SASS (native ISA) to ptxplus and run ptxplus
-gpgpu_ptx_force_max_capability                   20 # Force maximum compute capability
-gpgpu_ptx_inst_debug_to_file                    0 # Dump executed instructions' debug information to file
-gpgpu_ptx_inst_debug_file       inst_debug.txt # Executed instructions' debug output file
-gpgpu_ptx_inst_debug_thread_uid                    1 # Thread UID for executed instructions' debug output
-gpgpu_simd_model                       1 # 1 = post-dominator
-gpgpu_shader_core_pipeline              2048:32 # shader core pipeline config, i.e., {<nthread>:<warpsize>}
-gpgpu_tex_cache:l1  16:128:24,L:R:m:N:L,F:128:4,128:2 # per-shader L1 texture cache  (READ-ONLY) config  {<nsets>:<bsize>:<assoc>,<rep>:<wr>:<alloc>:<wr_alloc>,<mshr>:<N>:<merge>,<mq>:<rf>}
-gpgpu_const_cache:l1 128:64:2,L:R:f:N:L,A:2:64,4 # per-shader L1 constant memory cache  (READ-ONLY) config  {<nsets>:<bsize>:<assoc>,<rep>:<wr>:<alloc>:<wr_alloc>,<mshr>:<N>:<merge>,<mq>} 
-gpgpu_cache:il1     8:128:4,L:R:f:N:L,A:2:48,4 # shader L1 instruction cache config  {<nsets>:<bsize>:<assoc>,<rep>:<wr>:<alloc>:<wr_alloc>,<mshr>:<N>:<merge>,<mq>} 
-gpgpu_cache:dl1     64:128:6,L:L:m:N:H,A:128:8,8 # per-shader L1 data cache config  {<nsets>:<bsize>:<assoc>,<rep>:<wr>:<alloc>:<wr_alloc>,<mshr>:<N>:<merge>,<mq> | none}
-gpgpu_cache:dl1PrefL1                 none # per-shader L1 data cache config  {<nsets>:<bsize>:<assoc>,<rep>:<wr>:<alloc>:<wr_alloc>,<mshr>:<N>:<merge>,<mq> | none}
-gpgpu_cache:dl1PrefShared                 none # per-shader L1 data cache config  {<nsets>:<bsize>:<assoc>,<rep>:<wr>:<alloc>:<wr_alloc>,<mshr>:<N>:<merge>,<mq> | none}
-gmem_skip_L1D                          1 # global memory access skip L1D cache (implements -Xptxas -dlcm=cg, default=no skip)
-gpgpu_perfect_mem                      0 # enable perfect memory mode (no cache miss)
-n_regfile_gating_group                    4 # group of lanes that should be read/written together)
-gpgpu_clock_gated_reg_file                    0 # enable clock gated reg file for power calculations
-gpgpu_clock_gated_lanes                    0 # enable clock gated lanes for power calculations
-gpgpu_shader_registers                65536 # Number of registers per shader core. Limits number of concurrent CTAs. (default 8192)
-gpgpu_shader_cta                      32 # Maximum number of concurrent CTAs in shader (default 8)
-gpgpu_num_cta_barriers                   16 # Maximum number of named barriers per CTA (default 16)
-gpgpu_n_clusters                      28 # number of processing clusters
-gpgpu_n_cores_per_cluster                    1 # number of simd cores per cluster
-gpgpu_n_cluster_ejection_buffer_size                    8 # number of packets in ejection buffer
-gpgpu_n_ldst_response_buffer_size                    2 # number of response packets in ld/st unit ejection buffer
-gpgpu_shmem_size                   16384 # Size of shared memory per shader core (default 16kB)
-gpgpu_shmem_size                   98304 # Size of shared memory per shader core (default 16kB)
-gpgpu_shmem_size_PrefL1                16384 # Size of shared memory per shader core (default 16kB)
-gpgpu_shmem_size_PrefShared                16384 # Size of shared memory per shader core (default 16kB)
-gpgpu_shmem_num_banks                   32 # Number of banks in the shared memory in each shader core (default 16)
-gpgpu_shmem_limited_broadcast                    0 # Limit shared memory to do one broadcast per cycle (default on)
-gpgpu_shmem_warp_parts                    1 # Number of portions a warp is divided into for shared memory bank conflict check 
-gpgpu_warpdistro_shader                   -1 # Specify which shader core to collect the warp size distribution from
-gpgpu_warp_issue_shader                    0 # Specify which shader core to collect the warp issue distribution from
-gpgpu_local_mem_map                    1 # Mapping from local memory space address to simulated GPU physical address space (default = enabled)
-gpgpu_num_reg_banks                   32 # Number of register banks (default = 8)
-gpgpu_reg_bank_use_warp_id                    0 # Use warp ID in mapping registers to banks (default = off)
-gpgpu_operand_collector_num_units_sp                   20 # number of collector units (default = 4)
-gpgpu_operand_collector_num_units_sfu                    4 # number of collector units (default = 4)
-gpgpu_operand_collector_num_units_mem                    8 # number of collector units (default = 2)
-gpgpu_operand_collector_num_units_gen                    0 # number of collector units (default = 0)
-gpgpu_operand_collector_num_in_ports_sp                    4 # number of collector unit in ports (default = 1)
-gpgpu_operand_collector_num_in_ports_sfu                    1 # number of collector unit in ports (default = 1)
-gpgpu_operand_collector_num_in_ports_mem                    1 # number of collector unit in ports (default = 1)
-gpgpu_operand_collector_num_in_ports_gen                    0 # number of collector unit in ports (default = 0)
-gpgpu_operand_collector_num_out_ports_sp                    4 # number of collector unit in ports (default = 1)
-gpgpu_operand_collector_num_out_ports_sfu                    1 # number of collector unit in ports (default = 1)
-gpgpu_operand_collector_num_out_ports_mem                    1 # number of collector unit in ports (default = 1)
-gpgpu_operand_collector_num_out_ports_gen                    0 # number of collector unit in ports (default = 0)
-gpgpu_coalesce_arch                   13 # Coalescing arch (default = 13, anything else is off for now)
-gpgpu_num_sched_per_core                    2 # Number of warp schedulers per core
-gpgpu_max_insn_issue_per_warp                    2 # Max number of instructions that can be issued per warp in one cycle by scheduler
-gpgpu_simt_core_sim_order                    1 # Select the simulation order of cores in a cluster (0=Fix, 1=Round-Robin)
-gpgpu_pipeline_widths        4,1,1,4,1,1,6 # Pipeline widths ID_OC_SP,ID_OC_SFU,ID_OC_MEM,OC_EX_SP,OC_EX_SFU,OC_EX_MEM,EX_WB
-gpgpu_num_sp_units                     4 # Number of SP units (default=1)
-gpgpu_num_sfu_units                    1 # Number of SF units (default=1)
-gpgpu_num_mem_units                    1 # Number if ldst units (default=1) WARNING: not hooked up to anything
-gpgpu_scheduler                      gto # Scheduler configuration: < lrr | gto | two_level_active > If two_level_active:<num_active_warps>:<inner_prioritization>:<outer_prioritization>For complete list of prioritization values see shader.h enum scheduler_prioritization_typeDefault: gto
-gpgpu_concurrent_kernel_sm                    0 # Support concurrent kernels on a SM (default = disabled)
-tlb_size                            4096 # Number of tlb entries per SM.
-gpgpu_dram_scheduler                    1 # 0 = fifo, 1 = FR-FCFS (defaul)
-gpgpu_dram_partition_queues              8:8:8:8 # i2$:$2d:d2$:$2i
-l2_ideal                               0 # Use a ideal L2 cache that always hit
-gpgpu_cache:dl2     64:128:16,L:B:m:W:L,A:1024:1024,4:0,32 # unified banked L2 data cache config  {<nsets>:<bsize>:<assoc>,<rep>:<wr>:<alloc>:<wr_alloc>,<mshr>:<N>:<merge>,<mq>}
-gpgpu_cache:dl2_texture_only                    0 # L2 cache used for texture only
-gpgpu_n_mem                           11 # number of memory modules (e.g. memory controllers) in gpu
-gpgpu_n_sub_partition_per_mchannel                    2 # number of memory subpartition in each memory module
-gpgpu_n_mem_per_ctrlr                    1 # number of memory chips per memory controller
-gpgpu_memlatency_stat                   14 # track and display latency statistics 0x2 enables MC, 0x4 enables queue logs
-gpgpu_frfcfs_dram_sched_queue_size                   64 # 0 = unlimited (default); # entries per chip
-gpgpu_dram_return_queue_size                  116 # 0 = unlimited (default); # entries per chip
-gpgpu_dram_buswidth                    4 # default = 4 bytes (8 bytes per cycle at DDR)
-gpgpu_dram_burst_length                    8 # Burst length of each DRAM request (default = 4 data bus cycle)
-dram_data_command_freq_ratio                    4 # Frequency ratio between DRAM data bus and command bus (default = 2 times, i.e. DDR)
-gpgpu_dram_timing_opt nbk=16:CCD=2:RRD=6:RCD=12:RAS=28:RP=12:RC=40: CL=12:WL=4:CDLR=5:WR=12:nbkgrp=1:CCDL=0:RTPL=0 # DRAM timing parameters = {nbk:tCCD:tRRD:tRCD:tRAS:tRP:tRC:CL:WL:tCDLR:tWR:nbkgrp:tCCDL:tRTPL}
-rop_latency                          120 # ROP queue latency (default 85)
-dram_latency                         100 # DRAM latency (default 30)
-gpgpu_mem_addr_mapping dramid@8;00000000.00000000.00000000.00000000.0000RRRR.RRRRRRRR.RBBBCCCC.BCCSSSSS # mapping memory address to dram model {dramid@<start bit>;<memory address map>}
-gpgpu_mem_addr_test                    0 # run sweep test to check address mapping for aliased address
-gpgpu_mem_address_mask                    1 # 0 = old addressing mask, 1 = new addressing mask, 2 = new add. mask + flipped bank sel and chip sel bits
-gpuwattch_xml_file  gpuwattch_geforcegtx1080ti.xml # GPUWattch XML file
-power_simulation_enabled                    1 # Turn on power simulator (1=On, 0=Off)
-power_per_cycle_dump                    0 # Dump detailed power output each cycle
-power_trace_enabled                    0 # produce a file for the power trace (1=On, 0=Off)
-power_trace_zlevel                     6 # Compression level of the power trace output log (0=no comp, 9=highest)
-steady_power_levels_enabled                    0 # produce a file for the steady power levels (1=On, 0=Off)
-steady_state_definition                  8:4 # allowed deviation:number of samples
-gpgpu_max_cycle                        0 # terminates gpu simulation early (0 = no limit)
-gpgpu_max_insn                         0 # terminates gpu simulation early (0 = no limit)
-gpgpu_max_cta                          0 # terminates gpu simulation early (0 = no limit)
-gpgpu_runtime_stat                   500 # display runtime statistics such as dram utilization {<freq>:<flag>}
-liveness_message_freq                    1 # Minimum number of seconds between simulation liveness messages (0 = always print)
-gpgpu_flush_l1_cache                    0 # Flush L1 cache at the end of each kernel call
-gpgpu_flush_l2_cache                    0 # Flush L2 cache at the end of each kernel call
-gpgpu_deadlock_detect                    0 # Stop the simulation at deadlock (1=on (default), 0=off)
-gpgpu_ptx_instruction_classification                    0 # if enabled will classify ptx instruction types per kernel (Max 255 kernels now)
-gpgpu_ptx_sim_mode                     0 # Select between Performance (default) or Functional simulation (1)
-gpgpu_clock_domains 1481.0:2962.0:1481.0:2750.0 # Clock Domain Frequencies in MhZ {<Core Clock>:<ICNT Clock>:<L2 Clock>:<DRAM Clock>}
-gpgpu_max_concurrent_kernel                    8 # maximum kernels that can run concurrently on GPU
-gpgpu_cflog_interval                    0 # Interval between each snapshot in control flow logger
-visualizer_enabled                     0 # Turn on visualizer output (1=On, 0=Off)
-visualizer_outputfile                 NULL # Specifies the output log file for visualizer
-visualizer_zlevel                      6 # Compression level of the visualizer output log (0=no comp, 9=highest)
-trace_enabled                          0 # Turn on traces
-trace_components                    none # comma seperated list of traces to enable. Complete list found in trace_streams.tup. Default none
-trace_sampling_core                    0 # The core which is printed using CORE_DPRINTF. Default 0
-trace_sampling_memory_partition                   -1 # The memory partition which is printed using MEMPART_DPRINTF. Default -1 (i.e. all)
-gddr_size                            1GB # Size of GDDR in MB/GB.(GLOBAL_HEAP_START, GLOBAL_HEAP_START + gddr_size) would be used for unmanged memory, (GLOBAL_HEAP_START + gddr_size, GLOBAL_HEAP_START + gddr_size*2) would be used for managed memory. 
-page_table_walk_latency                   66 # Average page table walk latency (in core cycle).
-eviction_policy                      lru # Memory eviction policy: lru or random.
-percentage_of_free_page_buffer                    0 # Percentage of free page buffer to trigger the page eviction.
-page_size                            2MB # GDDR page size, only 4KB/2MB avaliable.
-pcie_bandwith                   16.0GB/s # PCI-e bandwith per direction, in GB/s.
-sim_prof_enable                        1 # Enable gpgpu-sim profiler
-hardware_prefetch                      0 # Enable gpgpu-sim hardware prefetcher
-page_fault_latency                 66645 # Average fault latency (in core cycle).
-enable_accurate_simulation                    0 # Enable page fault functional simulation.
-enable_ptx_file_line_stats                    1 # Turn on PTX source line statistic profiling. (1 = On)
-ptx_line_stats_filename gpgpu_inst_stats.txt # Output file for PTX source line statistics.
-gpgpu_kernel_launch_latency               222150 # Kernel launch latency in cycles. Default: 0
-gpgpu_cdp_enabled                      0 # Turn on CDP
-save_embedded_ptx                      0 # saves ptx files embedded in binary as <n>.ptx
-keep                                   0 # keep intermediate files created by GPGPU-Sim when interfacing with external programs
-gpgpu_ptx_save_converted_ptxplus                    0 # Saved converted ptxplus to a file
-ptx_opcode_latency_int         4,13,4,5,145 # Opcode latencies for integers <ADD,MAX,MUL,MAD,DIV>Default 1,1,19,25,145
-ptx_opcode_latency_fp          4,13,4,5,39 # Opcode latencies for single precision floating points <ADD,MAX,MUL,MAD,DIV>Default 1,1,1,1,30
-ptx_opcode_latency_dp         8,19,8,8,330 # Opcode latencies for double precision floating points <ADD,MAX,MUL,MAD,DIV>Default 8,8,8,8,335
-ptx_opcode_initiation_int            1,2,2,2,8 # Opcode initiation intervals for integers <ADD,MAX,MUL,MAD,DIV>Default 1,1,4,4,32
-ptx_opcode_initiation_fp            1,2,1,1,4 # Opcode initiation intervals for single precision floating points <ADD,MAX,MUL,MAD,DIV>Default 1,1,1,1,5
-ptx_opcode_initiation_dp          1,2,1,1,130 # Opcode initiation intervals for double precision floating points <ADD,MAX,MUL,MAD,DIV>Default 8,8,8,8,130
-cdp_latency         7200,8000,100,12000,1600 # CDP API latency <cudaStreamCreateWithFlags, cudaGetParameterBufferV2_init_perWarp, cudaGetParameterBufferV2_perKernel, cudaLaunchDeviceV2_init_perWarp, cudaLaunchDevicV2_perKernel>Default 7200,8000,100,12000,1600
DRAM Timing Options:
nbk                                    16 # number of banks
CCD                                     2 # column to column delay
RRD                                     6 # minimal delay between activation of rows in different banks
RCD                                    12 # row to column delay
RAS                                    28 # time needed to activate row
RP                                     12 # time needed to precharge (deactivate) row
RC                                     40 # row cycle time
CDLR                                    5 # switching from write to read (changes tWTR)
WR                                     12 # last data-in to row precharge
CL                                     12 # CAS latency
WL                                      4 # Write latency
nbkgrp                                  1 # number of bank groups
CCDL                                    0 # column to column delay between accesses to different bank groups
RTPL                                    0 # read to precharge delay between accesses to different bank groups
Total number of memory sub partition = 22
addr_dec_mask[CHIP]  = 0000000000000000 	high:64 low:0
addr_dec_mask[BK]    = 0000000000007080 	high:15 low:7
addr_dec_mask[ROW]   = 000000000fff8000 	high:28 low:15
addr_dec_mask[COL]   = 0000000000000f7f 	high:12 low:0
addr_dec_mask[BURST] = 000000000000001f 	high:5 low:0
sub_partition_id_mask = 0000000000000080
GPGPU-Sim uArch: clock freqs: 1481000000.000000:2962000000.000000:1481000000.000000:2750000000.000000
GPGPU-Sim uArch: clock periods: 0.00000000067521944632:0.00000000033760972316:0.00000000067521944632:0.00000000036363636364
*** Initializing Memory Statistics ***
GPGPU-Sim uArch: interconnect node map (shaderID+MemID to icntID)
GPGPU-Sim uArch: Memory nodes ID start from index: 28
GPGPU-Sim uArch:    0   1   2   3   4   5   6
GPGPU-Sim uArch:    7   8   9  10  11  12  13
GPGPU-Sim uArch:   14  15  16  17  18  19  20
GPGPU-Sim uArch:   21  22  23  24  25  26  27
GPGPU-Sim uArch:   28  29  30  31  32  33  34
GPGPU-Sim uArch:   35  36  37  38  39  40  41
GPGPU-Sim uArch:   42  43  44  45  46  47  48
GPGPU-Sim uArch:   49
GPGPU-Sim uArch: interconnect node reverse map (icntID to shaderID+MemID)
GPGPU-Sim uArch: Memory nodes start from ID: 28
GPGPU-Sim uArch:    0   1   2   3   4   5   6
GPGPU-Sim uArch:    7   8   9  10  11  12  13
GPGPU-Sim uArch:   14  15  16  17  18  19  20
GPGPU-Sim uArch:   21  22  23  24  25  26  27
GPGPU-Sim uArch:   28  29  30  31  32  33  34
GPGPU-Sim uArch:   35  36  37  38  39  40  41
GPGPU-Sim uArch:   42  43  44  45  46  47  48
GPGPU-Sim uArch:   49
05c5dca53dee93f044c258de3af58712  /home/gpuser/Documents/gpgpu-sim_UVM_2MB/benchmarks/Managed/stencil/main
GPGPU-Sim uArch: performance model initialization complete.
GPGPU-Sim PTX: __cudaRegisterFatBinary, fat_cubin_handle = 1, filename=default
self exe links to: /home/gpuser/Documents/gpgpu-sim_UVM_2MB/benchmarks/Managed/stencil/main
Running md5sum using "md5sum /home/gpuser/Documents/gpgpu-sim_UVM_2MB/benchmarks/Managed/stencil/main "
Parsing file _cuobjdump_complete_output_LBPALw
######### cuobjdump parser ########
## Adding new section ELF
Adding arch: sm_20
Adding identifier: default
## Adding new section ELF
Adding arch: sm_20
Adding identifier: default
## Adding new section PTX
Adding ptx filename: _cuobjdump_1.ptx
Adding arch: sm_20
Adding identifier: default
## Adding new section ELF
Adding arch: sm_20
Adding identifier: default
## Adding new section PTX
Adding ptx filename: _cuobjdump_2.ptx
Adding arch: sm_20
Adding identifier: default
Done parsing!!!
GPGPU-Sim PTX: __cudaRegisterFatBinary, fat_cubin_handle = 2, filename=default
GPGPU-Sim PTX: __cudaRegisterFunction _Z24block2D_hybrid_coarsen_xffPfS_iii : hostFun 0x0x401496, fat_cubin_handle = 2
GPGPU-Sim PTX: allocating shared region for "sh_A0" from 0x0 to 0x0 (shared memory space)
GPGPU-Sim PTX: instruction assembly for function '_Z24block2D_hybrid_coarsen_xffPfS_iii'...   done.
GPGPU-Sim PTX: finding reconvergence points for '_Z24block2D_hybrid_coarsen_xffPfS_iii'...
GPGPU-Sim PTX: Finding dominators for '_Z24block2D_hybrid_coarsen_xffPfS_iii'...
GPGPU-Sim PTX: Finding immediate dominators for '_Z24block2D_hybrid_coarsen_xffPfS_iii'...
GPGPU-Sim PTX: Finding postdominators for '_Z24block2D_hybrid_coarsen_xffPfS_iii'...
GPGPU-Sim PTX: Finding immediate postdominators for '_Z24block2D_hybrid_coarsen_xffPfS_iii'...
GPGPU-Sim PTX: pre-decoding instructions for '_Z24block2D_hybrid_coarsen_xffPfS_iii'...
GPGPU-Sim PTX: reconvergence points for _Z24block2D_hybrid_coarsen_xffPfS_iii...
GPGPU-Sim PTX:  1 (potential) branch divergence @  PC=0x170 (_2.ptx:82) @!%p13 bra BB0_2;
GPGPU-Sim PTX:    immediate post dominator      @  PC=0x200 (_2.ptx:104) mov.f32 %f64, %f69;
GPGPU-Sim PTX:  2 (potential) branch divergence @  PC=0x178 (_2.ptx:83) bra.uni BB0_1;
GPGPU-Sim PTX:    immediate post dominator      @  PC=0x180 (_2.ptx:86) mad.lo.s32 %r33, %r3, %r6, %r1;
GPGPU-Sim PTX:  3 (potential) branch divergence @  PC=0x228 (_2.ptx:109) @!%p16 bra BB0_4;
GPGPU-Sim PTX:    immediate post dominator      @  PC=0x2b0 (_2.ptx:130) mov.f32 %f67, %f68;
GPGPU-Sim PTX:  4 (potential) branch divergence @  PC=0x230 (_2.ptx:110) bra.uni BB0_3;
GPGPU-Sim PTX:    immediate post dominator      @  PC=0x238 (_2.ptx:113) mad.lo.s32 %r58, %r3, %r6, %r2;
GPGPU-Sim PTX:  5 (potential) branch divergence @  PC=0x2d0 (_2.ptx:134) @%p17 bra BB0_33;
GPGPU-Sim PTX:    immediate post dominator      @  PC=0x868 (_2.ptx:370) ret;
GPGPU-Sim PTX:  6 (potential) branch divergence @  PC=0x300 (_2.ptx:143) @!%p13 bra BB0_8;
GPGPU-Sim PTX:    immediate post dominator      @  PC=0x348 (_2.ptx:156) @!%p5 bra BB0_19;
GPGPU-Sim PTX:  7 (potential) branch divergence @  PC=0x308 (_2.ptx:144) bra.uni BB0_7;
GPGPU-Sim PTX:    immediate post dominator      @  PC=0x310 (_2.ptx:147) add.s32 %r75, %r273, 1;
GPGPU-Sim PTX:  8 (potential) branch divergence @  PC=0x348 (_2.ptx:156) @!%p5 bra BB0_19;
GPGPU-Sim PTX:    immediate post dominator      @  PC=0x590 (_2.ptx:251) @!%p16 bra BB0_21;
GPGPU-Sim PTX:  9 (potential) branch divergence @  PC=0x350 (_2.ptx:157) bra.uni BB0_9;
GPGPU-Sim PTX:    immediate post dominator      @  PC=0x358 (_2.ptx:160) add.s32 %r89, %r13, -1;
GPGPU-Sim PTX: 10 (potential) branch divergence @  PC=0x368 (_2.ptx:162) @%p21 bra BB0_11;
GPGPU-Sim PTX:    immediate post dominator      @  PC=0x3e8 (_2.ptx:184) setp.eq.s32%p22, %r15, 0;
GPGPU-Sim PTX: 11 (potential) branch divergence @  PC=0x370 (_2.ptx:163) bra.uni BB0_10;
GPGPU-Sim PTX:    immediate post dominator      @  PC=0x3b8 (_2.ptx:176) shl.b32 %r92, %r11, 1;
GPGPU-Sim PTX: 12 (potential) branch divergence @  PC=0x3b0 (_2.ptx:173) bra.uni BB0_12;
GPGPU-Sim PTX:    immediate post dominator      @  PC=0x3e8 (_2.ptx:184) setp.eq.s32%p22, %r15, 0;
GPGPU-Sim PTX: 13 (potential) branch divergence @  PC=0x3f0 (_2.ptx:185) @%p22 bra BB0_14;
GPGPU-Sim PTX:    immediate post dominator      @  PC=0x470 (_2.ptx:207) setp.eq.s32%p23, %r12, 0;
GPGPU-Sim PTX: 14 (potential) branch divergence @  PC=0x3f8 (_2.ptx:186) bra.uni BB0_13;
GPGPU-Sim PTX:    immediate post dominator      @  PC=0x440 (_2.ptx:199) shl.b32 %r111, %r11, 1;
GPGPU-Sim PTX: 15 (potential) branch divergence @  PC=0x438 (_2.ptx:196) bra.uni BB0_15;
GPGPU-Sim PTX:    immediate post dominator      @  PC=0x470 (_2.ptx:207) setp.eq.s32%p23, %r12, 0;
GPGPU-Sim PTX: 16 (potential) branch divergence @  PC=0x478 (_2.ptx:208) @%p23 bra BB0_17;
GPGPU-Sim PTX:    immediate post dominator      @  PC=0x4f0 (_2.ptx:229) mad.lo.s32 %r149, %r273, %r7, %r3;
GPGPU-Sim PTX: 17 (potential) branch divergence @  PC=0x480 (_2.ptx:209) bra.uni BB0_16;
GPGPU-Sim PTX:    immediate post dominator      @  PC=0x4c8 (_2.ptx:222) shl.b32 %r129, %r11, 1;
GPGPU-Sim PTX: 18 (potential) branch divergence @  PC=0x4c0 (_2.ptx:219) bra.uni BB0_18;
GPGPU-Sim PTX:    immediate post dominator      @  PC=0x4f0 (_2.ptx:229) mad.lo.s32 %r149, %r273, %r7, %r3;
GPGPU-Sim PTX: 19 (potential) branch divergence @  PC=0x590 (_2.ptx:251) @!%p16 bra BB0_21;
GPGPU-Sim PTX:    immediate post dominator      @  PC=0x5d8 (_2.ptx:264) @!%p4 bra BB0_32;
GPGPU-Sim PTX: 20 (potential) branch divergence @  PC=0x598 (_2.ptx:252) bra.uni BB0_20;
GPGPU-Sim PTX:    immediate post dominator      @  PC=0x5a0 (_2.ptx:255) add.s32 %r168, %r273, 1;
GPGPU-Sim PTX: 21 (potential) branch divergence @  PC=0x5d8 (_2.ptx:264) @!%p4 bra BB0_32;
GPGPU-Sim PTX:    immediate post dominator      @  PC=0x820 (_2.ptx:359) bar.sync 0;
GPGPU-Sim PTX: 22 (potential) branch divergence @  PC=0x5e0 (_2.ptx:265) bra.uni BB0_22;
GPGPU-Sim PTX:    immediate post dominator      @  PC=0x5e8 (_2.ptx:268) add.s32 %r183, %r13, -1;
GPGPU-Sim PTX: 23 (potential) branch divergence @  PC=0x5f8 (_2.ptx:270) @%p27 bra BB0_24;
GPGPU-Sim PTX:    immediate post dominator      @  PC=0x678 (_2.ptx:292) setp.eq.s32%p28, %r15, 0;
GPGPU-Sim PTX: 24 (potential) branch divergence @  PC=0x600 (_2.ptx:271) bra.uni BB0_23;
GPGPU-Sim PTX:    immediate post dominator      @  PC=0x648 (_2.ptx:284) shl.b32 %r186, %r11, 1;
GPGPU-Sim PTX: 25 (potential) branch divergence @  PC=0x640 (_2.ptx:281) bra.uni BB0_25;
GPGPU-Sim PTX:    immediate post dominator      @  PC=0x678 (_2.ptx:292) setp.eq.s32%p28, %r15, 0;
GPGPU-Sim PTX: 26 (potential) branch divergence @  PC=0x680 (_2.ptx:293) @%p28 bra BB0_27;
GPGPU-Sim PTX:    immediate post dominator      @  PC=0x700 (_2.ptx:315) shl.b32 %r228, %r11, 1;
GPGPU-Sim PTX: 27 (potential) branch divergence @  PC=0x688 (_2.ptx:294) bra.uni BB0_26;
GPGPU-Sim PTX:    immediate post dominator      @  PC=0x6d0 (_2.ptx:307) shl.b32 %r207, %r11, 1;
GPGPU-Sim PTX: 28 (potential) branch divergence @  PC=0x6c8 (_2.ptx:304) bra.uni BB0_28;
GPGPU-Sim PTX:    immediate post dominator      @  PC=0x700 (_2.ptx:315) shl.b32 %r228, %r11, 1;
GPGPU-Sim PTX: 29 (potential) branch divergence @  PC=0x718 (_2.ptx:318) @%p29 bra BB0_30;
GPGPU-Sim PTX:    immediate post dominator      @  PC=0x788 (_2.ptx:338) mad.lo.s32 %r253, %r273, %r7, %r3;
GPGPU-Sim PTX: 30 (potential) branch divergence @  PC=0x720 (_2.ptx:319) bra.uni BB0_29;
GPGPU-Sim PTX:    immediate post dominator      @  PC=0x768 (_2.ptx:332) mad.lo.s32 %r235, %r228, %r15, %r19;
GPGPU-Sim PTX: 31 (potential) branch divergence @  PC=0x760 (_2.ptx:329) bra.uni BB0_31;
GPGPU-Sim PTX:    immediate post dominator      @  PC=0x788 (_2.ptx:338) mad.lo.s32 %r253, %r273, %r7, %r3;
GPGPU-Sim PTX: 32 (potential) branch divergence @  PC=0x860 (_2.ptx:367) @%p30 bra BB0_6;
GPGPU-Sim PTX:    immediate post dominator      @  PC=0x868 (_2.ptx:370) ret;
GPGPU-Sim PTX: ... end of reconvergence points for _Z24block2D_hybrid_coarsen_xffPfS_iii
GPGPU-Sim PTX: ... done pre-decoding instructions for '_Z24block2D_hybrid_coarsen_xffPfS_iii'.
GPGPU-Sim PTX: finished parsing EMBEDDED .ptx file _2.ptx
Adding _cuobjdump_1.ptx with cubin handle 2
GPGPU-Sim PTX: extracting embedded .ptx to temporary file "_ptx_1BXdAr"
Running: cat _ptx_1BXdAr | sed 's/.version 1.5/.version 1.4/' | sed 's/, texmode_independent//' | sed 's/\(\.extern \.const\[1\] .b8 \w\+\)\[\]/\1\[1\]/' | sed 's/const\[.\]/const\[0\]/g' > _ptx2_3hhVom
GPGPU-Sim PTX: generating ptxinfo using "$CUDA_INSTALL_PATH/bin/ptxas --gpu-name=sm_20 -v _ptx2_3hhVom --output-file  /dev/null 2> _ptx_1BXdArinfo"
GPGPU-Sim PTX: Kernel '_Z24block2D_hybrid_coarsen_xffPfS_iii' : regs=20, lmem=0, smem=0, cmem=68
GPGPU-Sim PTX: removing ptxinfo using "rm -f _ptx_1BXdAr _ptx2_3hhVom _ptx_1BXdArinfo"
GPGPU-Sim PTX: loading globals with explicit initializers... 
GPGPU-Sim PTX: finished loading globals (0 bytes total).
GPGPU-Sim PTX: loading constants with explicit initializers...  done.
CUDA accelerated 7 points stencil codes****
Original version by Li-Wen Chang <lchang20@illinois.edu> and I-Jui Sung<sung10@illinois.edu>
This version maintained by Chris Rodrigues  ***********

GPGPU-Sim PTX: cudaLaunch for 0x0x401496 (mode=performance simulation) on stream 0
GPGPU-Sim PTX: pushing kernel '_Z24block2D_hybrid_coarsen_xffPfS_iii' to stream 0, gridDim= (2,32,1) blockDim = (32,4,1) 
GPGPU-Sim uArch: Shader 1 bind to kernel 1 '_Z24block2D_hybrid_coarsen_xffPfS_iii'
GPGPU-Sim uArch: CTA/core = 16, limited by: threads
GPGPU-Sim uArch: Shader 2 bind to kernel 1 '_Z24block2D_hybrid_coarsen_xffPfS_iii'
GPGPU-Sim uArch: Shader 3 bind to kernel 1 '_Z24block2D_hybrid_coarsen_xffPfS_iii'
GPGPU-Sim uArch: Shader 4 bind to kernel 1 '_Z24block2D_hybrid_coarsen_xffPfS_iii'
GPGPU-Sim uArch: Shader 5 bind to kernel 1 '_Z24block2D_hybrid_coarsen_xffPfS_iii'
GPGPU-Sim uArch: Shader 6 bind to kernel 1 '_Z24block2D_hybrid_coarsen_xffPfS_iii'
GPGPU-Sim uArch: Shader 7 bind to kernel 1 '_Z24block2D_hybrid_coarsen_xffPfS_iii'
GPGPU-Sim uArch: Shader 8 bind to kernel 1 '_Z24block2D_hybrid_coarsen_xffPfS_iii'
GPGPU-Sim uArch: Shader 9 bind to kernel 1 '_Z24block2D_hybrid_coarsen_xffPfS_iii'
GPGPU-Sim uArch: Shader 10 bind to kernel 1 '_Z24block2D_hybrid_coarsen_xffPfS_iii'
GPGPU-Sim uArch: Shader 11 bind to kernel 1 '_Z24block2D_hybrid_coarsen_xffPfS_iii'
GPGPU-Sim uArch: Shader 12 bind to kernel 1 '_Z24block2D_hybrid_coarsen_xffPfS_iii'
GPGPU-Sim uArch: Shader 13 bind to kernel 1 '_Z24block2D_hybrid_coarsen_xffPfS_iii'
GPGPU-Sim uArch: Shader 14 bind to kernel 1 '_Z24block2D_hybrid_coarsen_xffPfS_iii'
GPGPU-Sim uArch: Shader 15 bind to kernel 1 '_Z24block2D_hybrid_coarsen_xffPfS_iii'
GPGPU-Sim uArch: Shader 16 bind to kernel 1 '_Z24block2D_hybrid_coarsen_xffPfS_iii'
GPGPU-Sim uArch: Shader 17 bind to kernel 1 '_Z24block2D_hybrid_coarsen_xffPfS_iii'
GPGPU-Sim uArch: Shader 18 bind to kernel 1 '_Z24block2D_hybrid_coarsen_xffPfS_iii'
GPGPU-Sim uArch: Shader 19 bind to kernel 1 '_Z24block2D_hybrid_coarsen_xffPfS_iii'
GPGPU-Sim uArch: Shader 20 bind to kernel 1 '_Z24block2D_hybrid_coarsen_xffPfS_iii'
GPGPU-Sim uArch: Shader 21 bind to kernel 1 '_Z24block2D_hybrid_coarsen_xffPfS_iii'
GPGPU-Sim uArch: Shader 22 bind to kernel 1 '_Z24block2D_hybrid_coarsen_xffPfS_iii'
GPGPU-Sim uArch: Shader 23 bind to kernel 1 '_Z24block2D_hybrid_coarsen_xffPfS_iii'
GPGPU-Sim uArch: Shader 24 bind to kernel 1 '_Z24block2D_hybrid_coarsen_xffPfS_iii'
GPGPU-Sim uArch: Shader 25 bind to kernel 1 '_Z24block2D_hybrid_coarsen_xffPfS_iii'
GPGPU-Sim uArch: Shader 26 bind to kernel 1 '_Z24block2D_hybrid_coarsen_xffPfS_iii'
GPGPU-Sim uArch: Shader 27 bind to kernel 1 '_Z24block2D_hybrid_coarsen_xffPfS_iii'
GPGPU-Sim uArch: Shader 0 bind to kernel 1 '_Z24block2D_hybrid_coarsen_xffPfS_iii'
Destroy streams for kernel 1: size 0
kernel_name = _Z24block2D_hybrid_coarsen_xffPfS_iii 
kernel_launch_uid = 1 
gpu_sim_cycle = 501999
gpu_sim_insn = 28848876
gpu_ipc =      57.4680
gpu_tot_sim_cycle = 724149
gpu_tot_sim_insn = 28848876
gpu_tot_ipc =      39.8383
gpu_tot_issued_cta = 64
max_total_param_size = 0
gpu_stall_dramfull = 142670
gpu_stall_icnt2sh    = 3601
partiton_reqs_in_parallel = 10901308
partiton_reqs_in_parallel_total    = 0
partiton_level_parallism =      21.7158
partiton_level_parallism_total  =      15.0540
partiton_reqs_in_parallel_util = 10901308
partiton_reqs_in_parallel_util_total    = 0
gpu_sim_cycle_parition_util = 501506
gpu_tot_sim_cycle_parition_util    = 0
partiton_level_parallism_util =      21.7371
partiton_level_parallism_util_total  =      21.7371
partiton_replys_in_parallel = 47008
partiton_replys_in_parallel_total    = 0
L2_BW  =       8.8757 GB/Sec
L2_BW_total  =       6.1529 GB/Sec
gpu_total_sim_rate=21165

========= Core cache stats =========
L1I_cache:
	L1I_total_cache_accesses = 579228
	L1I_total_cache_misses = 4232
	L1I_total_cache_miss_rate = 0.0073
	L1I_total_cache_pending_hits = 0
	L1I_total_cache_reservation_fails = 0
L1D_cache:
	L1D_cache_core[0]: Access = 0, Miss = 0, Miss_rate = -nan, Pending_hits = 0, Reservation_fails = 0
	L1D_cache_core[1]: Access = 0, Miss = 0, Miss_rate = -nan, Pending_hits = 0, Reservation_fails = 0
	L1D_cache_core[2]: Access = 0, Miss = 0, Miss_rate = -nan, Pending_hits = 0, Reservation_fails = 0
	L1D_cache_core[3]: Access = 0, Miss = 0, Miss_rate = -nan, Pending_hits = 0, Reservation_fails = 0
	L1D_cache_core[4]: Access = 0, Miss = 0, Miss_rate = -nan, Pending_hits = 0, Reservation_fails = 0
	L1D_cache_core[5]: Access = 0, Miss = 0, Miss_rate = -nan, Pending_hits = 0, Reservation_fails = 0
	L1D_cache_core[6]: Access = 0, Miss = 0, Miss_rate = -nan, Pending_hits = 0, Reservation_fails = 0
	L1D_cache_core[7]: Access = 0, Miss = 0, Miss_rate = -nan, Pending_hits = 0, Reservation_fails = 0
	L1D_cache_core[8]: Access = 0, Miss = 0, Miss_rate = -nan, Pending_hits = 0, Reservation_fails = 0
	L1D_cache_core[9]: Access = 0, Miss = 0, Miss_rate = -nan, Pending_hits = 0, Reservation_fails = 0
	L1D_cache_core[10]: Access = 0, Miss = 0, Miss_rate = -nan, Pending_hits = 0, Reservation_fails = 0
	L1D_cache_core[11]: Access = 0, Miss = 0, Miss_rate = -nan, Pending_hits = 0, Reservation_fails = 0
	L1D_cache_core[12]: Access = 0, Miss = 0, Miss_rate = -nan, Pending_hits = 0, Reservation_fails = 0
	L1D_cache_core[13]: Access = 0, Miss = 0, Miss_rate = -nan, Pending_hits = 0, Reservation_fails = 0
	L1D_cache_core[14]: Access = 0, Miss = 0, Miss_rate = -nan, Pending_hits = 0, Reservation_fails = 0
	L1D_cache_core[15]: Access = 0, Miss = 0, Miss_rate = -nan, Pending_hits = 0, Reservation_fails = 0
	L1D_cache_core[16]: Access = 0, Miss = 0, Miss_rate = -nan, Pending_hits = 0, Reservation_fails = 0
	L1D_cache_core[17]: Access = 0, Miss = 0, Miss_rate = -nan, Pending_hits = 0, Reservation_fails = 0
	L1D_cache_core[18]: Access = 0, Miss = 0, Miss_rate = -nan, Pending_hits = 0, Reservation_fails = 0
	L1D_cache_core[19]: Access = 0, Miss = 0, Miss_rate = -nan, Pending_hits = 0, Reservation_fails = 0
	L1D_cache_core[20]: Access = 0, Miss = 0, Miss_rate = -nan, Pending_hits = 0, Reservation_fails = 0
	L1D_cache_core[21]: Access = 0, Miss = 0, Miss_rate = -nan, Pending_hits = 0, Reservation_fails = 0
	L1D_cache_core[22]: Access = 0, Miss = 0, Miss_rate = -nan, Pending_hits = 0, Reservation_fails = 0
	L1D_cache_core[23]: Access = 0, Miss = 0, Miss_rate = -nan, Pending_hits = 0, Reservation_fails = 0
	L1D_cache_core[24]: Access = 0, Miss = 0, Miss_rate = -nan, Pending_hits = 0, Reservation_fails = 0
	L1D_cache_core[25]: Access = 0, Miss = 0, Miss_rate = -nan, Pending_hits = 0, Reservation_fails = 0
	L1D_cache_core[26]: Access = 0, Miss = 0, Miss_rate = -nan, Pending_hits = 0, Reservation_fails = 0
	L1D_cache_core[27]: Access = 0, Miss = 0, Miss_rate = -nan, Pending_hits = 0, Reservation_fails = 0
	L1D_total_cache_accesses = 0
	L1D_total_cache_misses = 0
	L1D_total_cache_pending_hits = 0
	L1D_total_cache_reservation_fails = 0
	L1D_cache_data_port_util = 0.000
	L1D_cache_fill_port_util = 0.000
L1C_cache:
	L1C_total_cache_accesses = 1792
	L1C_total_cache_misses = 1632
	L1C_total_cache_miss_rate = 0.9107
	L1C_total_cache_pending_hits = 0
	L1C_total_cache_reservation_fails = 1444
L1T_cache:
	L1T_total_cache_accesses = 0
	L1T_total_cache_misses = 0
	L1T_total_cache_pending_hits = 0
	L1T_total_cache_reservation_fails = 0

Total_core_cache_stats:
	Total_core_cache_stats_breakdown[GLOBAL_ACC_R][HIT] = 0
	Total_core_cache_stats_breakdown[GLOBAL_ACC_R][HIT_RESERVED] = 0
	Total_core_cache_stats_breakdown[GLOBAL_ACC_R][MISS] = 0
	Total_core_cache_stats_breakdown[GLOBAL_ACC_R][RESERVATION_FAIL] = 0
	Total_core_cache_stats_breakdown[LOCAL_ACC_R][HIT] = 0
	Total_core_cache_stats_breakdown[LOCAL_ACC_R][HIT_RESERVED] = 0
	Total_core_cache_stats_breakdown[LOCAL_ACC_R][MISS] = 0
	Total_core_cache_stats_breakdown[LOCAL_ACC_R][RESERVATION_FAIL] = 0
	Total_core_cache_stats_breakdown[CONST_ACC_R][HIT] = 160
	Total_core_cache_stats_breakdown[CONST_ACC_R][HIT_RESERVED] = 0
	Total_core_cache_stats_breakdown[CONST_ACC_R][MISS] = 1632
	Total_core_cache_stats_breakdown[CONST_ACC_R][RESERVATION_FAIL] = 1444
	Total_core_cache_stats_breakdown[TEXTURE_ACC_R][HIT] = 0
	Total_core_cache_stats_breakdown[TEXTURE_ACC_R][HIT_RESERVED] = 0
	Total_core_cache_stats_breakdown[TEXTURE_ACC_R][MISS] = 0
	Total_core_cache_stats_breakdown[TEXTURE_ACC_R][RESERVATION_FAIL] = 0
	Total_core_cache_stats_breakdown[GLOBAL_ACC_W][HIT] = 0
	Total_core_cache_stats_breakdown[GLOBAL_ACC_W][HIT_RESERVED] = 0
	Total_core_cache_stats_breakdown[GLOBAL_ACC_W][MISS] = 0
	Total_core_cache_stats_breakdown[GLOBAL_ACC_W][RESERVATION_FAIL] = 0
	Total_core_cache_stats_breakdown[LOCAL_ACC_W][HIT] = 0
	Total_core_cache_stats_breakdown[LOCAL_ACC_W][HIT_RESERVED] = 0
	Total_core_cache_stats_breakdown[LOCAL_ACC_W][MISS] = 0
	Total_core_cache_stats_breakdown[LOCAL_ACC_W][RESERVATION_FAIL] = 0
	Total_core_cache_stats_breakdown[L1_WRBK_ACC][HIT] = 0
	Total_core_cache_stats_breakdown[L1_WRBK_ACC][HIT_RESERVED] = 0
	Total_core_cache_stats_breakdown[L1_WRBK_ACC][MISS] = 0
	Total_core_cache_stats_breakdown[L1_WRBK_ACC][RESERVATION_FAIL] = 0
	Total_core_cache_stats_breakdown[L2_WRBK_ACC][HIT] = 0
	Total_core_cache_stats_breakdown[L2_WRBK_ACC][HIT_RESERVED] = 0
	Total_core_cache_stats_breakdown[L2_WRBK_ACC][MISS] = 0
	Total_core_cache_stats_breakdown[L2_WRBK_ACC][RESERVATION_FAIL] = 0
	Total_core_cache_stats_breakdown[INST_ACC_R][HIT] = 574996
	Total_core_cache_stats_breakdown[INST_ACC_R][HIT_RESERVED] = 0
	Total_core_cache_stats_breakdown[INST_ACC_R][MISS] = 4232
	Total_core_cache_stats_breakdown[INST_ACC_R][RESERVATION_FAIL] = 0
	Total_core_cache_stats_breakdown[L1_WR_ALLOC_R][HIT] = 0
	Total_core_cache_stats_breakdown[L1_WR_ALLOC_R][HIT_RESERVED] = 0
	Total_core_cache_stats_breakdown[L1_WR_ALLOC_R][MISS] = 0
	Total_core_cache_stats_breakdown[L1_WR_ALLOC_R][RESERVATION_FAIL] = 0
	Total_core_cache_stats_breakdown[L2_WR_ALLOC_R][HIT] = 0
	Total_core_cache_stats_breakdown[L2_WR_ALLOC_R][HIT_RESERVED] = 0
	Total_core_cache_stats_breakdown[L2_WR_ALLOC_R][MISS] = 0
	Total_core_cache_stats_breakdown[L2_WR_ALLOC_R][RESERVATION_FAIL] = 0
	Total_core_cache_stats_breakdown[CONST_ACC_R][TOTAL_ACCESS] = 1792
	Total_core_cache_stats_breakdown[INST_ACC_R][TOTAL_ACCESS] = 579228
Shader 0 warp_id issue ditsribution:
warp_id:
0, 1, 2, 3, 4, 5, 6, 7, 
distro:
4828, 4638, 4648, 4819, 4827, 4644, 4648, 4816, 
gpgpu_n_tot_thrd_icount = 33319424
gpgpu_n_tot_w_icount = 1041232
gpgpu_n_stall_shd_mem = 291256
gpgpu_n_mem_read_local = 0
gpgpu_n_mem_write_local = 0
gpgpu_n_mem_read_global = 31384
gpgpu_n_mem_write_global = 15120
gpgpu_n_mem_texture = 0
gpgpu_n_mem_const = 28
gpgpu_n_load_insn  = 766208
gpgpu_n_store_insn = 476280
gpgpu_n_shmem_insn = 3155288
gpgpu_n_tex_insn = 0
gpgpu_n_const_mem_insn = 0
gpgpu_n_param_mem_insn = 57344
gpgpu_n_shmem_bkconflict = 0
gpgpu_n_cache_bkconflict = 0
gpgpu_n_intrawarp_mshr_merge = 0
gpgpu_n_cmem_portconflict = 1444
gpgpu_stall_shd_mem[c_mem][bk_conf] = 1444
gpgpu_stall_shd_mem[c_mem][mshr_rc] = 0
gpgpu_stall_shd_mem[c_mem][icnt_rc] = 0
gpgpu_stall_shd_mem[c_mem][data_port_stall] = 0
gpgpu_stall_shd_mem[t_mem][mshr_rc] = 0
gpgpu_stall_shd_mem[t_mem][icnt_rc] = 0
gpgpu_stall_shd_mem[t_mem][data_port_stall] = 0
gpgpu_stall_shd_mem[s_mem][bk_conf] = 0
gpgpu_stall_shd_mem[gl_mem][bk_conf] = 0
gpgpu_stall_shd_mem[gl_mem][coal_stall] = 0
gpgpu_stall_shd_mem[gl_mem][data_port_stall] = 0
gpgpu_stall_shd_mem[g_mem_ld][mshr_rc] = 0
gpgpu_stall_shd_mem[g_mem_ld][icnt_rc] = 289812
gpgpu_stall_shd_mem[g_mem_ld][wb_icnt_rc] = 0
gpgpu_stall_shd_mem[g_mem_ld][wb_rsrv_fail] = 0
gpgpu_stall_shd_mem[g_mem_st][mshr_rc] = 0
gpgpu_stall_shd_mem[g_mem_st][icnt_rc] = 0
gpgpu_stall_shd_mem[g_mem_st][wb_icnt_rc] = 0
gpgpu_stall_shd_mem[g_mem_st][wb_rsrv_fail] = 0
gpgpu_stall_shd_mem[l_mem_ld][mshr_rc] = 0
gpgpu_stall_shd_mem[l_mem_ld][icnt_rc] = 0
gpgpu_stall_shd_mem[l_mem_ld][wb_icnt_rc] = 0
gpgpu_stall_shd_mem[l_mem_ld][wb_rsrv_fail] = 0
gpgpu_stall_shd_mem[l_mem_st][mshr_rc] = 0
gpgpu_stall_shd_mem[l_mem_st][icnt_rc] = 0
gpgpu_stall_shd_mem[l_mem_ld][wb_icnt_rc] = 0
gpgpu_stall_shd_mem[l_mem_ld][wb_rsrv_fail] = 0
gpu_reg_bank_conflict_stalls = 0
Warp Occupancy Distribution:
Stall:34295	W0_Idle:12462901	W0_Scoreboard:14677433	W1:60480	W2:0	W3:0	W4:0	W5:0	W6:0	W7:0	W8:0	W9:0	W10:0	W11:0	W12:0	W13:0	W14:0	W15:0	W16:0	W17:0	W18:0	W19:0	W20:0	W21:0	W22:0	W23:0	W24:0	W25:0	W26:0	W27:0	W28:0	W29:0	W30:0	W31:408180	W32:572572
traffic_breakdown_coretomem[CONST_ACC_R] = 224 {8:28,}
traffic_breakdown_coretomem[GLOBAL_ACC_R] = 251072 {8:31384,}
traffic_breakdown_coretomem[GLOBAL_ACC_W] = 2056320 {136:15120,}
traffic_breakdown_coretomem[INST_ACC_R] = 3808 {8:476,}
traffic_breakdown_memtocore[CONST_ACC_R] = 2016 {72:28,}
traffic_breakdown_memtocore[GLOBAL_ACC_R] = 3542464 {40:7560,136:23824,}
traffic_breakdown_memtocore[GLOBAL_ACC_W] = 120960 {8:15120,}
traffic_breakdown_memtocore[INST_ACC_R] = 64736 {136:476,}
maxmrqlatency = 1904 
maxdqlatency = 0 
maxmflatency = 243427 
averagemflatency = 76328 
max_icnt2mem_latency = 242208 
max_icnt2sh_latency = 724148 
mrq_lat_table:15911 	911 	675 	918 	1029 	1898 	3925 	6804 	9401 	4637 	533 	0 	0 	0 	0 	0 	0 	0 	0 	0 	0 	0 	0 	0 	0 	0 	0 	0 	0 	0 	0 	0 	
dq_lat_table:0 	0 	0 	0 	0 	0 	0 	0 	0 	0 	0 	0 	0 	0 	0 	0 	0 	0 	0 	0 	0 	0 	0 	0 	0 	0 	0 	0 	0 	0 	0 	0 	
mf_lat_table:0 	0 	0 	0 	0 	0 	0 	28749 	2151 	0 	0 	0 	0 	0 	0 	0 	0 	15632 	0 	0 	0 	0 	0 	0 	0 	0 	0 	0 	0 	0 	0 	0 	
icnt2mem_lat_table:0 	0 	31350 	10 	16 	0 	0 	0 	0 	0 	0 	0 	0 	0 	0 	0 	0 	15632 	0 	0 	0 	0 	0 	0 	
icnt2sh_lat_table:0 	0 	25628 	5490 	294 	0 	0 	0 	0 	0 	0 	0 	0 	0 	0 	0 	0 	0 	0 	15120 	0 	0 	0 	0 	
mf_lat_pw_table:0 	0 	0 	0 	0 	0 	0 	79 	3 	0 	0 	0 	0 	0 	0 	0 	0 	27 	0 	0 	0 	0 	0 	0 	0 	0 	0 	0 	0 	0 	0 	0 	
maximum concurrent accesses to same row:
dram[0]:        32        32        32        32        30        30        30        28        32        32        32        32        32        32        32        32 
dram[1]:        32        32        32        32        32        32        30        30        32        32        32        32        32        32        32        32 
dram[2]:        32        32        32        32        32        32        30        28        32        30        32        32        32        32        32        32 
dram[3]:        32        32        32        32        32        32        32        30        32        32        28        30        32        32        30        30 
dram[4]:        32        32        32        32        32        32        32        32        32        32        28        26        32        32        32        32 
dram[5]:        32        32        32        32        32        32        32        30        32        32        26        26        32        32        30        30 
dram[6]:        30        30        32        32        32        32        32        32        32        32        26        26        32        32        32        32 
dram[7]:        32        32        32        32        32        32        32        32        32        32        28        28        32        32        32        32 
dram[8]:        32        32        32        32        30        30        32        32        32        30        28        28        32        32        32        32 
dram[9]:        32        32        32        32        30        30        32        32        32        32        32        32        32        32        32        32 
dram[10]:        32        32        32        32        30        30        32        32        32        30        32        30        32        32        32        32 
maximum service time to same row:
dram[0]:    243698    244705    245324    246865    245421    246863    248521    248600    249615    250165    243671    244404    243669    244330    243680    244335 
dram[1]:    243696    244697    245329    246919    245408    246926    248468    248555    249606    250131    243669    244389    243671    244337    243683    244385 
dram[2]:    243699    244709    245325    246867    245400    246875    248546    249069    249631    250161    243669    244391    243670    244332    243683    244340 
dram[3]:    243698    244702    245331    246917    245430    246938    248497    249009    249627    250145    243669    244392    243670    244332    243685    244387 
dram[4]:    243697    244707    245327    246868    245407    246872    248453    249063    249644    250159    243669    244397    243670    244339    243456    243813 
dram[5]:    243700    244700    245332    246923    245415    246928    248500    248998    249608    250149    243671    244395    243669    244325    242792    243165 
dram[6]:    243696    244702    245329    246882    245430    246849    248451    249076    249607    250144    243669    244401    243671    244335    243682    244346 
dram[7]:    243698    244706    245334    246931    245439    246942    248503    249005    249606    250172    243670    244408    243669    244327    243687    244391 
dram[8]:    243698    244702    245326    246932    245415    245727    248457    249071    249609    250140    243671    244402    243669    244340    243689    244398 
dram[9]:    243704    244705    245336    246855    245418    245730    248492    248987    249610    250156    243669    244402    243670    244326    243677    244358 
dram[10]:    243693    244696    245328    246914    245414    247022    248454    249082    249613    250133    243669    244387    243670    244344    243684    244401 
average row accesses per activate:
dram[0]: 11.320000 12.260870 10.880000 12.363636 11.904762 10.416667 14.705882 13.888889 11.714286 11.714286  8.962963  9.680000 16.000000 14.400000 14.450000 13.136364 
dram[1]: 11.280000 14.100000 14.000000 11.565217 13.473684 15.058824 11.363636 11.363636 14.470589 16.400000 11.045455 10.565217 13.090909 13.090909 11.560000 11.076923 
dram[2]: 11.520000 11.520000  9.851851  9.500000 14.222222 18.285715 11.904762 10.416667 12.947369 11.714286 10.565217 10.565217 16.941177 16.941177 14.842105 11.280000 
dram[3]: 16.000000 16.941177 12.090909 11.565217 10.240000 13.473684 13.888889 15.625000 12.300000 12.947369 11.571428 14.294118 13.714286 15.157895 13.428572 11.750000 
dram[4]: 11.076923 11.076923 10.640000 10.640000 12.600000 13.263158 15.058824 14.222222 15.375000 13.666667  9.720000  9.000000 16.941177 16.000000 14.894737 11.320000 
dram[5]: 16.588236 14.842105 11.739130 12.857142 10.956522 10.956522 16.000000 16.000000 12.947369 13.666667 10.125000 11.045455 13.090909 12.521739 12.863636 11.791667 
dram[6]: 13.428572 11.750000 12.857142 11.739130 12.600000 12.600000 13.473684 13.473684 12.947369 11.714286 10.565217  9.000000 14.842105 12.818182 13.761905 12.041667 
dram[7]: 13.428572 13.428572 13.500000 12.857142  9.000000 10.080000 14.222222 14.222222 11.523809 11.523809  9.576923 10.826087 12.260870 11.280000 14.450000 13.136364 
dram[8]: 14.100000 11.750000 12.272727 12.272727 10.869565 13.157895 13.473684 12.800000 12.736842 10.083333 12.450000 11.318182 13.428572 11.280000 11.560000 11.560000 
dram[9]: 14.400000 14.400000 11.739130 10.800000  9.615385 10.869565 16.000000 16.000000 10.478261 12.684211 10.375000  9.960000 13.428572 13.428572 10.481482 10.107142 
dram[10]: 13.714286 14.400000 12.272727 12.272727 11.904762 13.157895 12.190476 13.473684 15.062500 13.388889 11.136364 11.666667 15.157895 16.000000 10.107142 11.791667 
average row locality = 46642/3761 = 12.401489
number of total memory accesses made:
dram[0]:         0         0         0         0         0         0         0         0         0         0         0         0         0         0         0         0 
dram[1]:         0         0         0         0         0         0         0         0         0         0         0         0         0         0         0         0 
dram[2]:         0         0         0         0         0         0         0         0         0         0         0         0         0         0         0         0 
dram[3]:         0         0         0         0         0         0         0         0         0         0         0         0         0         0         0         0 
dram[4]:         0         0         0         0         0         0         0         0         0         0         0         0         0         0         0         0 
dram[5]:         0         0         0         0         0         0         0         0         0         0         0         0         0         0         0         0 
dram[6]:         0         0         0         0         0         0         0         0         0         0         0         0         0         0         0         0 
dram[7]:         0         0         0         0         0         0         0         0         0         0         0         0         0         0         0         0 
dram[8]:         0         0         0         0         0         0         0         0         0         0         0         0         0         0         0         0 
dram[9]:         0         0         0         0         0         0         0         0         0         0         0         0         0         0         0         0 
dram[10]:         0         0         0         0         0         0         0         0         0         0         0         0         0         0         0         0 
total accesses: 0
min_bank_accesses = 0!
min_chip_accesses = 0!
number of total read accesses:
dram[0]:       190       189       184       184       173       173       173       173       166       166       162       162       192       192       193       193 
dram[1]:       189       189       181       181       176       176       173       173       166       166       163       163       192       192       193       192 
dram[2]:       192       192       181       181       176       176       173       173       166       166       163       163       192       192       189       189 
dram[3]:       192       192       181       181       176       176       173       173       166       166       163       163       192       192       189       189 
dram[4]:       192       192       181       181       174       174       176       176       166       166       163       163       192       192       190       190 
dram[5]:       189       189       183       183       174       174       176       176       166       166       163       163       192       192       190       190 
dram[6]:       189       189       183       183       174       174       176       176       166       166       163       163       189       189       193       193 
dram[7]:       189       189       183       183       174       174       176       176       164       164       166       166       189       189       193       193 
dram[8]:       189       189       183       183       173       173       176       176       164       164       166       166       189       189       193       193 
dram[9]:       192       192       183       183       173       173       176       176       163       163       166       166       189       189       190       190 
dram[10]:       192       192       183       183       173       173       176       176       163       163       164       164       192       192       190       190 
total reads: 31522
bank skew: 193/162 = 1.19
chip skew: 2868/2864 = 1.00
number of total write accesses:
dram[0]:        93        93        88        88        77        77        77        77        80        80        80        80        96        96        96        96 
dram[1]:        93        93        85        85        80        80        77        77        80        80        80        80        96        96        96        96 
dram[2]:        96        96        85        85        80        80        77        77        80        80        80        80        96        96        93        93 
dram[3]:        96        96        85        85        80        80        77        77        80        80        80        80        96        96        93        93 
dram[4]:        96        96        85        85        78        78        80        80        80        80        80        80        96        96        93        93 
dram[5]:        93        93        87        87        78        78        80        80        80        80        80        80        96        96        93        93 
dram[6]:        93        93        87        87        78        78        80        80        80        80        80        80        93        93        96        96 
dram[7]:        93        93        87        87        78        78        80        80        78        78        83        83        93        93        96        96 
dram[8]:        93        93        87        87        77        77        80        80        78        78        83        83        93        93        96        96 
dram[9]:        96        96        87        87        77        77        80        80        78        78        83        83        93        93        93        93 
dram[10]:        96        96        87        87        77        77        80        80        78        78        81        81        96        96        93        93 
total reads: 15120
bank skew: 96/77 = 1.25
chip skew: 1376/1374 = 1.00
average mf latency per bank:
dram[0]:      86185     76054     74814     74699     71467     71348     71267     71178     75083     74984     78313     76172     90831     77182     90305     76761
dram[1]:      86459     76091     73917     73841     72545     72474     71245     71172     75083     75017     78976     75879     90784     77175     90287     77013
dram[2]:      87044     76846     73908     73803     72550     72452     71238     71141     75093     74985     78969     75866     90814     77187     90032     76152
dram[3]:      87070     76873     73896     73802     72564     72476     71237     71146     75075     74956     79034     75935     90793     77168     90028     76130
dram[4]:      87059     76851     73903     73795     71869     71787     72311     72216     75093     74988     79007     75884     90813     77184     89703     75882
dram[5]:      86423     75996     74540     74442     71853     71758     72311     72215     75077     74979     79037     75912     90789     77149     89708     75877
dram[6]:      86420     75975     74548     74450     71866     71775     72322     72227     75090     75000     79001     75894     90265     76355     90317     76777
dram[7]:      85523     75978     74563     74462     71823     71765     72316     72216     74401     74317     79896     76875     90238     76317     90325     76775
dram[8]:      85548     75993     74551     74446     71505     71414     72317     72212     74404     74316     79909     76875     90219     76325     90305     76779
dram[9]:      86205     76860     74545     74459     71454     71360     72327     72240     74690     74598     79922     76879     90253     76347     89759     75953
dram[10]:      86198     76832     74560     74446     71491     71389     72306     72200     74728     74609     79332     76214     90776     77169     89782     75949
maximum mf latency per bank:
dram[0]:     242499    240999    240875    240596    240877    240395    239846    240616    239355    239136    242396    240822    243427    241951    242621    241544
dram[1]:     242488    241014    240781    240660    240479    240201    239657    239636    239426    239060    242389    240843    243313    241978    242530    241360
dram[2]:     242500    240852    240870    240607    240606    240330    239741    240666    239298    239195    242391    240905    243302    241826    242477    241000
dram[3]:     242491    241073    240740    240605    240483    240290    239932    239467    239340    238884    242503    241027    243305    241972    242512    241100
dram[4]:     242492    240918    240906    240522    240842    240542    239851    239540    239232    239114    242394    241070    243240    241868    242482    241023
dram[5]:     242507    240751    240718    240623    240448    240272    239986    239650    239338    238983    242505    241010    243268    242085    242511    241267
dram[6]:     242496    240762    240854    240411    240853    240423    239870    239660    239325    239120    242386    241064    243212    241934    242487    241239
dram[7]:     242514    240670    240591    240533    240555    240359    240014    239654    239312    239021    242446    241033    243322    241941    242682    241466
dram[8]:     242492    240824    240729    240343    240616    240218    239897    239654    239303    239560    242430    241073    243245    242066    242494    241209
dram[9]:     242502    240824    240809    240519    240600    240004    239982    239663    239234    239062    242406    241042    243247    242053    242534    241400
dram[10]:     242494    240802    240753    240609    240426    240180    239889    239650    239439    240321    242392    241091    243378    242063    242487    241185
Memory Partition 0: 
Cache L2_bank_000:
MSHR contents

Cache L2_bank_001:
MSHR contents

In Dram Latency Queue (total = 0): 
DRAM[0]: 16 bks, busW=4 BL=8 CL=12, tRRD=2 tCCD=6, tRCD=12 tRAS=28 tRP=12 tRC=40
n_cmd=932137 n_nop=914497 n_act=350 n_pre=334 n_req=4239 n_rd=11460 n_write=5496 bw_util=0.03638
n_activity=47118 dram_eff=0.7197
bk0: 760a 910479i bk1: 756a 910082i bk2: 736a 910890i bk3: 736a 910942i bk4: 692a 914142i bk5: 692a 913683i bk6: 692a 913415i bk7: 692a 912444i bk8: 664a 912240i bk9: 664a 912203i bk10: 648a 912265i bk11: 648a 913166i bk12: 768a 909404i bk13: 768a 909513i bk14: 772a 909584i bk15: 772a 910023i 
dram_util_bins: 0 0 0 0 0 0 0 0 0 0
dram_eff_bins: 0 0 0 0 0 0 0 0 0 0
mrqq: max=64 avg=1.63374
Memory Partition 1: 
Cache L2_bank_002:
MSHR contents

Cache L2_bank_003:
MSHR contents
MSHR: tag=0xc03e8580, atomic=0 1 entries : 0x7ff589df1180 :  mf: uid=644073, sid06:w06, part=1, addr=0xc03e8580, load , size=128, unknown  status = IN_PARTITION_DRAM (724148), 

In Dram Latency Queue (total = 0): 
DRAM[1]: 16 bks, busW=4 BL=8 CL=12, tRRD=2 tCCD=6, tRCD=12 tRAS=28 tRP=12 tRC=40
n_cmd=932137 n_nop=914520 n_act=339 n_pre=323 n_req=4239 n_rd=11459 n_write=5496 bw_util=0.03638
n_activity=47027 dram_eff=0.7211
bk0: 756a 911225i bk1: 755a 910835i bk2: 724a 912047i bk3: 724a 910660i bk4: 704a 912543i bk5: 704a 912308i bk6: 692a 913312i bk7: 692a 913406i bk8: 664a 912320i bk9: 664a 912262i bk10: 652a 912817i bk11: 652a 913531i bk12: 768a 910087i bk13: 768a 910081i bk14: 772a 909788i bk15: 768a 910027i 
dram_util_bins: 0 0 0 0 0 0 0 0 0 0
dram_eff_bins: 0 0 0 0 0 0 0 0 0 0
mrqq: max=64 avg=1.63721
Memory Partition 2: 
Cache L2_bank_004:
MSHR contents

Cache L2_bank_005:
MSHR contents

In Dram Latency Queue (total = 0): 
DRAM[2]: 16 bks, busW=4 BL=8 CL=12, tRRD=2 tCCD=6, tRCD=12 tRAS=28 tRP=12 tRC=40
n_cmd=932137 n_nop=914509 n_act=346 n_pre=330 n_req=4238 n_rd=11456 n_write=5496 bw_util=0.03637
n_activity=46723 dram_eff=0.7256
bk0: 768a 910179i bk1: 768a 909728i bk2: 724a 910654i bk3: 724a 911096i bk4: 704a 912418i bk5: 704a 912656i bk6: 692a 913614i bk7: 692a 913213i bk8: 664a 912591i bk9: 664a 912320i bk10: 652a 912055i bk11: 652a 912591i bk12: 768a 909282i bk13: 768a 909084i bk14: 756a 910308i bk15: 756a 910664i 
dram_util_bins: 0 0 0 0 0 0 0 0 0 0
dram_eff_bins: 0 0 0 0 0 0 0 0 0 0
mrqq: max=64 avg=1.634
Memory Partition 3: 
Cache L2_bank_006:
MSHR contents

Cache L2_bank_007:
MSHR contents

In Dram Latency Queue (total = 0): 
DRAM[3]: 16 bks, busW=4 BL=8 CL=12, tRRD=2 tCCD=6, tRCD=12 tRAS=28 tRP=12 tRC=40
n_cmd=932137 n_nop=914561 n_act=320 n_pre=304 n_req=4238 n_rd=11456 n_write=5496 bw_util=0.03637
n_activity=46914 dram_eff=0.7227
bk0: 768a 909888i bk1: 768a 910062i bk2: 724a 911329i bk3: 724a 911048i bk4: 704a 912368i bk5: 704a 911908i bk6: 692a 914022i bk7: 692a 914040i bk8: 664a 912128i bk9: 664a 912833i bk10: 652a 912796i bk11: 652a 912740i bk12: 768a 909169i bk13: 768a 909297i bk14: 756a 909845i bk15: 756a 909677i 
dram_util_bins: 0 0 0 0 0 0 0 0 0 0
dram_eff_bins: 0 0 0 0 0 0 0 0 0 0
mrqq: max=64 avg=1.63296
Memory Partition 4: 
Cache L2_bank_008:
MSHR contents

Cache L2_bank_009:
MSHR contents

In Dram Latency Queue (total = 0): 
DRAM[4]: 16 bks, busW=4 BL=8 CL=12, tRRD=2 tCCD=6, tRCD=12 tRAS=28 tRP=12 tRC=40
n_cmd=932137 n_nop=914495 n_act=341 n_pre=325 n_req=4244 n_rd=11472 n_write=5504 bw_util=0.03642
n_activity=46892 dram_eff=0.724
bk0: 768a 910969i bk1: 768a 910317i bk2: 724a 911881i bk3: 724a 911734i bk4: 696a 913287i bk5: 696a 912295i bk6: 704a 912142i bk7: 704a 912485i bk8: 664a 912538i bk9: 664a 911576i bk10: 652a 912422i bk11: 652a 913127i bk12: 768a 909634i bk13: 768a 909233i bk14: 760a 910556i bk15: 760a 909703i 
dram_util_bins: 0 0 0 0 0 0 0 0 0 0
dram_eff_bins: 0 0 0 0 0 0 0 0 0 0
mrqq: max=64 avg=1.63525
Memory Partition 5: 
Cache L2_bank_010:
MSHR contents

Cache L2_bank_011:
MSHR contents

In Dram Latency Queue (total = 0): 
DRAM[5]: 16 bks, busW=4 BL=8 CL=12, tRRD=2 tCCD=6, tRCD=12 tRAS=28 tRP=12 tRC=40
n_cmd=932137 n_nop=914529 n_act=332 n_pre=316 n_req=4240 n_rd=11464 n_write=5496 bw_util=0.03639
n_activity=47046 dram_eff=0.721
bk0: 756a 909784i bk1: 756a 910120i bk2: 732a 911218i bk3: 732a 910347i bk4: 696a 912984i bk5: 696a 912570i bk6: 704a 912006i bk7: 704a 911973i bk8: 664a 912467i bk9: 664a 912545i bk10: 652a 912325i bk11: 652a 912611i bk12: 768a 909499i bk13: 768a 909343i bk14: 760a 910014i bk15: 760a 910020i 
dram_util_bins: 0 0 0 0 0 0 0 0 0 0
dram_eff_bins: 0 0 0 0 0 0 0 0 0 0
mrqq: max=64 avg=1.63112
Memory Partition 6: 
Cache L2_bank_012:
MSHR contents

Cache L2_bank_013:
MSHR contents

In Dram Latency Queue (total = 0): 
DRAM[6]: 16 bks, busW=4 BL=8 CL=12, tRRD=2 tCCD=6, tRCD=12 tRAS=28 tRP=12 tRC=40
n_cmd=932137 n_nop=914507 n_act=343 n_pre=327 n_req=4240 n_rd=11464 n_write=5496 bw_util=0.03639
n_activity=47082 dram_eff=0.7204
bk0: 756a 910793i bk1: 756a 910852i bk2: 732a 911612i bk3: 732a 911202i bk4: 696a 913229i bk5: 696a 913249i bk6: 704a 912772i bk7: 704a 912120i bk8: 664a 912885i bk9: 664a 912376i bk10: 652a 912799i bk11: 652a 913430i bk12: 756a 910807i bk13: 756a 910934i bk14: 772a 910293i bk15: 772a 910086i 
dram_util_bins: 0 0 0 0 0 0 0 0 0 0
dram_eff_bins: 0 0 0 0 0 0 0 0 0 0
mrqq: max=64 avg=1.63825
Memory Partition 7: 
Cache L2_bank_014:
MSHR contents

Cache L2_bank_015:
MSHR contents

In Dram Latency Queue (total = 0): 
DRAM[7]: 16 bks, busW=4 BL=8 CL=12, tRRD=2 tCCD=6, tRCD=12 tRAS=28 tRP=12 tRC=40
n_cmd=932137 n_nop=914471 n_act=353 n_pre=337 n_req=4244 n_rd=11472 n_write=5504 bw_util=0.03642
n_activity=46813 dram_eff=0.7253
bk0: 756a 909814i bk1: 756a 909915i bk2: 732a 911112i bk3: 732a 911289i bk4: 696a 913701i bk5: 696a 912002i bk6: 704a 911761i bk7: 704a 912262i bk8: 656a 912832i bk9: 656a 913423i bk10: 664a 911944i bk11: 664a 912076i bk12: 756a 910525i bk13: 756a 911723i bk14: 772a 909537i bk15: 772a 909960i 
dram_util_bins: 0 0 0 0 0 0 0 0 0 0
dram_eff_bins: 0 0 0 0 0 0 0 0 0 0
mrqq: max=64 avg=1.63403
Memory Partition 8: 
Cache L2_bank_016:
MSHR contents

Cache L2_bank_017:
MSHR contents

In Dram Latency Queue (total = 0): 
DRAM[8]: 16 bks, busW=4 BL=8 CL=12, tRRD=2 tCCD=6, tRCD=12 tRAS=28 tRP=12 tRC=40
n_cmd=932137 n_nop=914493 n_act=350 n_pre=334 n_req=4240 n_rd=11464 n_write=5496 bw_util=0.03639
n_activity=47118 dram_eff=0.7199
bk0: 756a 910722i bk1: 756a 910802i bk2: 732a 911323i bk3: 732a 911086i bk4: 692a 913341i bk5: 692a 913368i bk6: 704a 912188i bk7: 704a 912277i bk8: 656a 912539i bk9: 656a 913544i bk10: 664a 912235i bk11: 664a 911837i bk12: 756a 912403i bk13: 756a 910971i bk14: 772a 910534i bk15: 772a 910121i 
dram_util_bins: 0 0 0 0 0 0 0 0 0 0
dram_eff_bins: 0 0 0 0 0 0 0 0 0 0
mrqq: max=64 avg=1.63724
Memory Partition 9: 
Cache L2_bank_018:
MSHR contents

Cache L2_bank_019:
MSHR contents

In Dram Latency Queue (total = 0): 
DRAM[9]: 16 bks, busW=4 BL=8 CL=12, tRRD=2 tCCD=6, tRCD=12 tRAS=28 tRP=12 tRC=40
n_cmd=932137 n_nop=914487 n_act=357 n_pre=341 n_req=4238 n_rd=11456 n_write=5496 bw_util=0.03637
n_activity=46720 dram_eff=0.7257
bk0: 768a 909353i bk1: 768a 909569i bk2: 732a 911483i bk3: 732a 911103i bk4: 692a 913416i bk5: 692a 913059i bk6: 704a 911919i bk7: 704a 911966i bk8: 652a 912590i bk9: 652a 913053i bk10: 664a 911832i bk11: 664a 912505i bk12: 756a 910455i bk13: 756a 910125i bk14: 760a 910286i bk15: 760a 910389i 
dram_util_bins: 0 0 0 0 0 0 0 0 0 0
dram_eff_bins: 0 0 0 0 0 0 0 0 0 0
mrqq: max=64 avg=1.63345
Memory Partition 10: 
Cache L2_bank_020:
MSHR contents

Cache L2_bank_021:
MSHR contents

In Dram Latency Queue (total = 0): 
DRAM[10]: 16 bks, busW=4 BL=8 CL=12, tRRD=2 tCCD=6, tRCD=12 tRAS=28 tRP=12 tRC=40
n_cmd=932137 n_nop=914523 n_act=331 n_pre=315 n_req=4242 n_rd=11464 n_write=5504 bw_util=0.03641
n_activity=46972 dram_eff=0.7225
bk0: 768a 910017i bk1: 768a 910321i bk2: 732a 911551i bk3: 732a 910876i bk4: 692a 913390i bk5: 692a 913516i bk6: 704a 912728i bk7: 704a 912283i bk8: 652a 913340i bk9: 652a 913207i bk10: 656a 912474i bk11: 656a 913097i bk12: 768a 910317i bk13: 768a 909522i bk14: 760a 911243i bk15: 760a 911488i 
dram_util_bins: 0 0 0 0 0 0 0 0 0 0
dram_eff_bins: 0 0 0 0 0 0 0 0 0 0
mrqq: max=64 avg=1.63614

========= L2 cache stats =========
L2_cache_bank[0]: Access = 2169, Miss = 1433, Miss_rate = 0.661, Pending_hits = 55, Reservation_fails = 0
L2_cache_bank[1]: Access = 2140, Miss = 1432, Miss_rate = 0.669, Pending_hits = 15, Reservation_fails = 0
L2_cache_bank[2]: Access = 2141, Miss = 1433, Miss_rate = 0.669, Pending_hits = 5, Reservation_fails = 0
L2_cache_bank[3]: Access = 2114, Miss = 1432, Miss_rate = 0.677, Pending_hits = 2, Reservation_fails = 0
L2_cache_bank[4]: Access = 2115, Miss = 1432, Miss_rate = 0.677, Pending_hits = 2, Reservation_fails = 0
L2_cache_bank[5]: Access = 2115, Miss = 1432, Miss_rate = 0.677, Pending_hits = 2, Reservation_fails = 0
L2_cache_bank[6]: Access = 2113, Miss = 1432, Miss_rate = 0.678, Pending_hits = 1, Reservation_fails = 0
L2_cache_bank[7]: Access = 2112, Miss = 1432, Miss_rate = 0.678, Pending_hits = 2, Reservation_fails = 0
L2_cache_bank[8]: Access = 2142, Miss = 1434, Miss_rate = 0.669, Pending_hits = 28, Reservation_fails = 0
L2_cache_bank[9]: Access = 2143, Miss = 1434, Miss_rate = 0.669, Pending_hits = 30, Reservation_fails = 0
L2_cache_bank[10]: Access = 2142, Miss = 1433, Miss_rate = 0.669, Pending_hits = 29, Reservation_fails = 0
L2_cache_bank[11]: Access = 2141, Miss = 1433, Miss_rate = 0.669, Pending_hits = 29, Reservation_fails = 0
L2_cache_bank[12]: Access = 2140, Miss = 1433, Miss_rate = 0.670, Pending_hits = 29, Reservation_fails = 0
L2_cache_bank[13]: Access = 2141, Miss = 1433, Miss_rate = 0.669, Pending_hits = 30, Reservation_fails = 0
L2_cache_bank[14]: Access = 2144, Miss = 1434, Miss_rate = 0.669, Pending_hits = 29, Reservation_fails = 0
L2_cache_bank[15]: Access = 2144, Miss = 1434, Miss_rate = 0.669, Pending_hits = 29, Reservation_fails = 0
L2_cache_bank[16]: Access = 2142, Miss = 1433, Miss_rate = 0.669, Pending_hits = 29, Reservation_fails = 0
L2_cache_bank[17]: Access = 2141, Miss = 1433, Miss_rate = 0.669, Pending_hits = 29, Reservation_fails = 0
L2_cache_bank[18]: Access = 2140, Miss = 1432, Miss_rate = 0.669, Pending_hits = 15, Reservation_fails = 0
L2_cache_bank[19]: Access = 2141, Miss = 1432, Miss_rate = 0.669, Pending_hits = 6, Reservation_fails = 0
L2_cache_bank[20]: Access = 2144, Miss = 1433, Miss_rate = 0.668, Pending_hits = 13, Reservation_fails = 0
L2_cache_bank[21]: Access = 2144, Miss = 1433, Miss_rate = 0.668, Pending_hits = 29, Reservation_fails = 0
L2_total_cache_accesses = 47008
L2_total_cache_misses = 31522
L2_total_cache_miss_rate = 0.6706
L2_total_cache_pending_hits = 438
L2_total_cache_reservation_fails = 0
L2_total_cache_breakdown:
	L2_cache_stats_breakdown[GLOBAL_ACC_R][HIT] = 14956
	L2_cache_stats_breakdown[GLOBAL_ACC_R][HIT_RESERVED] = 44
	L2_cache_stats_breakdown[GLOBAL_ACC_R][MISS] = 16384
	L2_cache_stats_breakdown[GLOBAL_ACC_R][RESERVATION_FAIL] = 0
	L2_cache_stats_breakdown[LOCAL_ACC_R][HIT] = 0
	L2_cache_stats_breakdown[LOCAL_ACC_R][HIT_RESERVED] = 0
	L2_cache_stats_breakdown[LOCAL_ACC_R][MISS] = 0
	L2_cache_stats_breakdown[LOCAL_ACC_R][RESERVATION_FAIL] = 0
	L2_cache_stats_breakdown[CONST_ACC_R][HIT] = 0
	L2_cache_stats_breakdown[CONST_ACC_R][HIT_RESERVED] = 27
	L2_cache_stats_breakdown[CONST_ACC_R][MISS] = 1
	L2_cache_stats_breakdown[CONST_ACC_R][RESERVATION_FAIL] = 0
	L2_cache_stats_breakdown[TEXTURE_ACC_R][HIT] = 0
	L2_cache_stats_breakdown[TEXTURE_ACC_R][HIT_RESERVED] = 0
	L2_cache_stats_breakdown[TEXTURE_ACC_R][MISS] = 0
	L2_cache_stats_breakdown[TEXTURE_ACC_R][RESERVATION_FAIL] = 0
	L2_cache_stats_breakdown[GLOBAL_ACC_W][HIT] = 0
	L2_cache_stats_breakdown[GLOBAL_ACC_W][HIT_RESERVED] = 0
	L2_cache_stats_breakdown[GLOBAL_ACC_W][MISS] = 15120
	L2_cache_stats_breakdown[GLOBAL_ACC_W][RESERVATION_FAIL] = 0
	L2_cache_stats_breakdown[LOCAL_ACC_W][HIT] = 0
	L2_cache_stats_breakdown[LOCAL_ACC_W][HIT_RESERVED] = 0
	L2_cache_stats_breakdown[LOCAL_ACC_W][MISS] = 0
	L2_cache_stats_breakdown[LOCAL_ACC_W][RESERVATION_FAIL] = 0
	L2_cache_stats_breakdown[L1_WRBK_ACC][HIT] = 0
	L2_cache_stats_breakdown[L1_WRBK_ACC][HIT_RESERVED] = 0
	L2_cache_stats_breakdown[L1_WRBK_ACC][MISS] = 0
	L2_cache_stats_breakdown[L1_WRBK_ACC][RESERVATION_FAIL] = 0
	L2_cache_stats_breakdown[L2_WRBK_ACC][HIT] = 0
	L2_cache_stats_breakdown[L2_WRBK_ACC][HIT_RESERVED] = 0
	L2_cache_stats_breakdown[L2_WRBK_ACC][MISS] = 0
	L2_cache_stats_breakdown[L2_WRBK_ACC][RESERVATION_FAIL] = 0
	L2_cache_stats_breakdown[INST_ACC_R][HIT] = 92
	L2_cache_stats_breakdown[INST_ACC_R][HIT_RESERVED] = 367
	L2_cache_stats_breakdown[INST_ACC_R][MISS] = 17
	L2_cache_stats_breakdown[INST_ACC_R][RESERVATION_FAIL] = 0
	L2_cache_stats_breakdown[L1_WR_ALLOC_R][HIT] = 0
	L2_cache_stats_breakdown[L1_WR_ALLOC_R][HIT_RESERVED] = 0
	L2_cache_stats_breakdown[L1_WR_ALLOC_R][MISS] = 0
	L2_cache_stats_breakdown[L1_WR_ALLOC_R][RESERVATION_FAIL] = 0
	L2_cache_stats_breakdown[L2_WR_ALLOC_R][HIT] = 0
	L2_cache_stats_breakdown[L2_WR_ALLOC_R][HIT_RESERVED] = 0
	L2_cache_stats_breakdown[L2_WR_ALLOC_R][MISS] = 0
	L2_cache_stats_breakdown[L2_WR_ALLOC_R][RESERVATION_FAIL] = 0
	L2_cache_stats_breakdown[GLOBAL_ACC_R][TOTAL_ACCESS] = 31384
	L2_cache_stats_breakdown[CONST_ACC_R][TOTAL_ACCESS] = 28
	L2_cache_stats_breakdown[GLOBAL_ACC_W][TOTAL_ACCESS] = 15120
	L2_cache_stats_breakdown[INST_ACC_R][TOTAL_ACCESS] = 476
L2_cache_data_port_util = 0.003
L2_cache_fill_port_util = 0.011

icnt_total_pkts_mem_to_simt=151824
icnt_total_pkts_simt_to_mem=107488
LD_mem_lat_dist  0 0 0 0 0 0 0 0 0 0 0 0 0 0 0 0 0 0 0 0 0 0 0 0 0 0 0
ST_mem_lat_dist  0 0 0 0 0 0 0 0 0 0 0 0 0 0 0 0 0 0 0 0 0 0 0 0 0 0 0
----------------------------Interconnect-DETAILS--------------------------------
Class 0:
Packet latency average = 29.5999
	minimum = 6
	maximum = 1353
Network latency average = 23.2579
	minimum = 6
	maximum = 1330
Slowest packet = 65915
Flit latency average = 28.5757
	minimum = 6
	maximum = 1326
Slowest flit = 178896
Fragmentation average = 1.6108
	minimum = 0
	maximum = 1235
Injected packet rate average = 0.00187284
	minimum = 0.00148407 (at node 0)
	maximum = 0.00221714 (at node 3)
Accepted packet rate average = 0.00187284
	minimum = 0.00148407 (at node 0)
	maximum = 0.00221714 (at node 3)
Injected flit rate average = 0.0051656
	minimum = 0.00339643 (at node 0)
	maximum = 0.0069811 (at node 28)
Accepted flit rate average= 0.0051656
	minimum = 0.00478886 (at node 0)
	maximum = 0.00713947 (at node 3)
Injected packet length average = 2.75817
Accepted packet length average = 2.75817
Total in-flight flits = 0 (0 measured)
====== Overall Traffic Statistics ======
====== Traffic class 0 ======
Packet latency average = 29.5999 (1 samples)
	minimum = 6 (1 samples)
	maximum = 1353 (1 samples)
Network latency average = 23.2579 (1 samples)
	minimum = 6 (1 samples)
	maximum = 1330 (1 samples)
Flit latency average = 28.5757 (1 samples)
	minimum = 6 (1 samples)
	maximum = 1326 (1 samples)
Fragmentation average = 1.6108 (1 samples)
	minimum = 0 (1 samples)
	maximum = 1235 (1 samples)
Injected packet rate average = 0.00187284 (1 samples)
	minimum = 0.00148407 (1 samples)
	maximum = 0.00221714 (1 samples)
Accepted packet rate average = 0.00187284 (1 samples)
	minimum = 0.00148407 (1 samples)
	maximum = 0.00221714 (1 samples)
Injected flit rate average = 0.0051656 (1 samples)
	minimum = 0.00339643 (1 samples)
	maximum = 0.0069811 (1 samples)
Accepted flit rate average = 0.0051656 (1 samples)
	minimum = 0.00478886 (1 samples)
	maximum = 0.00713947 (1 samples)
Injected packet size average = 2.75817 (1 samples)
Accepted packet size average = 2.75817 (1 samples)
Hops average = 1 (1 samples)
----------------------------END-of-Interconnect-DETAILS-------------------------


gpgpu_simulation_time = 0 days, 0 hrs, 22 min, 43 sec (1363 sec)
gpgpu_simulation_rate = 21165 (inst/sec)
gpgpu_simulation_rate = 531 (cycle/sec)

GPGPU-Sim PTX: cudaLaunch for 0x0x401496 (mode=performance simulation) on stream 0
GPGPU-Sim PTX: pushing kernel '_Z24block2D_hybrid_coarsen_xffPfS_iii' to stream 0, gridDim= (2,32,1) blockDim = (32,4,1) 
GPGPU-Sim uArch: Shader 9 bind to kernel 2 '_Z24block2D_hybrid_coarsen_xffPfS_iii'
GPGPU-Sim uArch: Shader 10 bind to kernel 2 '_Z24block2D_hybrid_coarsen_xffPfS_iii'
GPGPU-Sim uArch: Shader 11 bind to kernel 2 '_Z24block2D_hybrid_coarsen_xffPfS_iii'
GPGPU-Sim uArch: Shader 12 bind to kernel 2 '_Z24block2D_hybrid_coarsen_xffPfS_iii'
GPGPU-Sim uArch: Shader 13 bind to kernel 2 '_Z24block2D_hybrid_coarsen_xffPfS_iii'
GPGPU-Sim uArch: Shader 14 bind to kernel 2 '_Z24block2D_hybrid_coarsen_xffPfS_iii'
GPGPU-Sim uArch: Shader 15 bind to kernel 2 '_Z24block2D_hybrid_coarsen_xffPfS_iii'
GPGPU-Sim uArch: Shader 16 bind to kernel 2 '_Z24block2D_hybrid_coarsen_xffPfS_iii'
GPGPU-Sim uArch: Shader 17 bind to kernel 2 '_Z24block2D_hybrid_coarsen_xffPfS_iii'
GPGPU-Sim uArch: Shader 18 bind to kernel 2 '_Z24block2D_hybrid_coarsen_xffPfS_iii'
GPGPU-Sim uArch: Shader 19 bind to kernel 2 '_Z24block2D_hybrid_coarsen_xffPfS_iii'
GPGPU-Sim uArch: Shader 20 bind to kernel 2 '_Z24block2D_hybrid_coarsen_xffPfS_iii'
GPGPU-Sim uArch: Shader 21 bind to kernel 2 '_Z24block2D_hybrid_coarsen_xffPfS_iii'
GPGPU-Sim uArch: Shader 22 bind to kernel 2 '_Z24block2D_hybrid_coarsen_xffPfS_iii'
GPGPU-Sim uArch: Shader 23 bind to kernel 2 '_Z24block2D_hybrid_coarsen_xffPfS_iii'
GPGPU-Sim uArch: Shader 24 bind to kernel 2 '_Z24block2D_hybrid_coarsen_xffPfS_iii'
GPGPU-Sim uArch: Shader 25 bind to kernel 2 '_Z24block2D_hybrid_coarsen_xffPfS_iii'
GPGPU-Sim uArch: Shader 26 bind to kernel 2 '_Z24block2D_hybrid_coarsen_xffPfS_iii'
GPGPU-Sim uArch: Shader 27 bind to kernel 2 '_Z24block2D_hybrid_coarsen_xffPfS_iii'
GPGPU-Sim uArch: Shader 0 bind to kernel 2 '_Z24block2D_hybrid_coarsen_xffPfS_iii'
GPGPU-Sim uArch: Shader 1 bind to kernel 2 '_Z24block2D_hybrid_coarsen_xffPfS_iii'
GPGPU-Sim uArch: Shader 2 bind to kernel 2 '_Z24block2D_hybrid_coarsen_xffPfS_iii'
GPGPU-Sim uArch: Shader 3 bind to kernel 2 '_Z24block2D_hybrid_coarsen_xffPfS_iii'
GPGPU-Sim uArch: Shader 4 bind to kernel 2 '_Z24block2D_hybrid_coarsen_xffPfS_iii'
GPGPU-Sim uArch: Shader 5 bind to kernel 2 '_Z24block2D_hybrid_coarsen_xffPfS_iii'
GPGPU-Sim uArch: Shader 6 bind to kernel 2 '_Z24block2D_hybrid_coarsen_xffPfS_iii'
GPGPU-Sim uArch: Shader 7 bind to kernel 2 '_Z24block2D_hybrid_coarsen_xffPfS_iii'
GPGPU-Sim uArch: Shader 8 bind to kernel 2 '_Z24block2D_hybrid_coarsen_xffPfS_iii'
Destroy streams for kernel 2: size 0
kernel_name = _Z24block2D_hybrid_coarsen_xffPfS_iii 
kernel_launch_uid = 2 
gpu_sim_cycle = 38581
gpu_sim_insn = 28848876
gpu_ipc =     747.7483
gpu_tot_sim_cycle = 984880
gpu_tot_sim_insn = 57697752
gpu_tot_ipc =      58.5835
gpu_tot_issued_cta = 128
max_total_param_size = 0
gpu_stall_dramfull = 142673
gpu_stall_icnt2sh    = 5601
partiton_reqs_in_parallel = 848779
partiton_reqs_in_parallel_total    = 10901308
partiton_level_parallism =      21.9999
partiton_level_parallism_total  =      11.9305
partiton_reqs_in_parallel_util = 848779
partiton_reqs_in_parallel_util_total    = 10901308
gpu_sim_cycle_parition_util = 38581
gpu_tot_sim_cycle_parition_util    = 501506
partiton_level_parallism_util =      21.9999
partiton_level_parallism_util_total  =      21.7559
partiton_replys_in_parallel = 46504
partiton_replys_in_parallel_total    = 47008
L2_BW  =     114.2489 GB/Sec
L2_BW_total  =       8.9995 GB/Sec
gpu_total_sim_rate=37033

========= Core cache stats =========
L1I_cache:
	L1I_total_cache_accesses = 1158456
	L1I_total_cache_misses = 4232
	L1I_total_cache_miss_rate = 0.0037
	L1I_total_cache_pending_hits = 0
	L1I_total_cache_reservation_fails = 0
L1D_cache:
	L1D_cache_core[0]: Access = 0, Miss = 0, Miss_rate = -nan, Pending_hits = 0, Reservation_fails = 0
	L1D_cache_core[1]: Access = 0, Miss = 0, Miss_rate = -nan, Pending_hits = 0, Reservation_fails = 0
	L1D_cache_core[2]: Access = 0, Miss = 0, Miss_rate = -nan, Pending_hits = 0, Reservation_fails = 0
	L1D_cache_core[3]: Access = 0, Miss = 0, Miss_rate = -nan, Pending_hits = 0, Reservation_fails = 0
	L1D_cache_core[4]: Access = 0, Miss = 0, Miss_rate = -nan, Pending_hits = 0, Reservation_fails = 0
	L1D_cache_core[5]: Access = 0, Miss = 0, Miss_rate = -nan, Pending_hits = 0, Reservation_fails = 0
	L1D_cache_core[6]: Access = 0, Miss = 0, Miss_rate = -nan, Pending_hits = 0, Reservation_fails = 0
	L1D_cache_core[7]: Access = 0, Miss = 0, Miss_rate = -nan, Pending_hits = 0, Reservation_fails = 0
	L1D_cache_core[8]: Access = 0, Miss = 0, Miss_rate = -nan, Pending_hits = 0, Reservation_fails = 0
	L1D_cache_core[9]: Access = 0, Miss = 0, Miss_rate = -nan, Pending_hits = 0, Reservation_fails = 0
	L1D_cache_core[10]: Access = 0, Miss = 0, Miss_rate = -nan, Pending_hits = 0, Reservation_fails = 0
	L1D_cache_core[11]: Access = 0, Miss = 0, Miss_rate = -nan, Pending_hits = 0, Reservation_fails = 0
	L1D_cache_core[12]: Access = 0, Miss = 0, Miss_rate = -nan, Pending_hits = 0, Reservation_fails = 0
	L1D_cache_core[13]: Access = 0, Miss = 0, Miss_rate = -nan, Pending_hits = 0, Reservation_fails = 0
	L1D_cache_core[14]: Access = 0, Miss = 0, Miss_rate = -nan, Pending_hits = 0, Reservation_fails = 0
	L1D_cache_core[15]: Access = 0, Miss = 0, Miss_rate = -nan, Pending_hits = 0, Reservation_fails = 0
	L1D_cache_core[16]: Access = 0, Miss = 0, Miss_rate = -nan, Pending_hits = 0, Reservation_fails = 0
	L1D_cache_core[17]: Access = 0, Miss = 0, Miss_rate = -nan, Pending_hits = 0, Reservation_fails = 0
	L1D_cache_core[18]: Access = 0, Miss = 0, Miss_rate = -nan, Pending_hits = 0, Reservation_fails = 0
	L1D_cache_core[19]: Access = 0, Miss = 0, Miss_rate = -nan, Pending_hits = 0, Reservation_fails = 0
	L1D_cache_core[20]: Access = 0, Miss = 0, Miss_rate = -nan, Pending_hits = 0, Reservation_fails = 0
	L1D_cache_core[21]: Access = 0, Miss = 0, Miss_rate = -nan, Pending_hits = 0, Reservation_fails = 0
	L1D_cache_core[22]: Access = 0, Miss = 0, Miss_rate = -nan, Pending_hits = 0, Reservation_fails = 0
	L1D_cache_core[23]: Access = 0, Miss = 0, Miss_rate = -nan, Pending_hits = 0, Reservation_fails = 0
	L1D_cache_core[24]: Access = 0, Miss = 0, Miss_rate = -nan, Pending_hits = 0, Reservation_fails = 0
	L1D_cache_core[25]: Access = 0, Miss = 0, Miss_rate = -nan, Pending_hits = 0, Reservation_fails = 0
	L1D_cache_core[26]: Access = 0, Miss = 0, Miss_rate = -nan, Pending_hits = 0, Reservation_fails = 0
	L1D_cache_core[27]: Access = 0, Miss = 0, Miss_rate = -nan, Pending_hits = 0, Reservation_fails = 0
	L1D_total_cache_accesses = 0
	L1D_total_cache_misses = 0
	L1D_total_cache_pending_hits = 0
	L1D_total_cache_reservation_fails = 0
	L1D_cache_data_port_util = 0.000
	L1D_cache_fill_port_util = 0.000
L1C_cache:
	L1C_total_cache_accesses = 3584
	L1C_total_cache_misses = 1632
	L1C_total_cache_miss_rate = 0.4554
	L1C_total_cache_pending_hits = 0
	L1C_total_cache_reservation_fails = 1444
L1T_cache:
	L1T_total_cache_accesses = 0
	L1T_total_cache_misses = 0
	L1T_total_cache_pending_hits = 0
	L1T_total_cache_reservation_fails = 0

Total_core_cache_stats:
	Total_core_cache_stats_breakdown[GLOBAL_ACC_R][HIT] = 0
	Total_core_cache_stats_breakdown[GLOBAL_ACC_R][HIT_RESERVED] = 0
	Total_core_cache_stats_breakdown[GLOBAL_ACC_R][MISS] = 0
	Total_core_cache_stats_breakdown[GLOBAL_ACC_R][RESERVATION_FAIL] = 0
	Total_core_cache_stats_breakdown[LOCAL_ACC_R][HIT] = 0
[...]
	L2_cache_stats_breakdown[CONST_ACC_R][MISS] = 1
	L2_cache_stats_breakdown[CONST_ACC_R][RESERVATION_FAIL] = 0
	L2_cache_stats_breakdown[TEXTURE_ACC_R][HIT] = 0
	L2_cache_stats_breakdown[TEXTURE_ACC_R][HIT_RESERVED] = 0
	L2_cache_stats_breakdown[TEXTURE_ACC_R][MISS] = 0
	L2_cache_stats_breakdown[TEXTURE_ACC_R][RESERVATION_FAIL] = 0
	L2_cache_stats_breakdown[GLOBAL_ACC_W][HIT] = 0
	L2_cache_stats_breakdown[GLOBAL_ACC_W][HIT_RESERVED] = 0
	L2_cache_stats_breakdown[GLOBAL_ACC_W][MISS] = 604800
	L2_cache_stats_breakdown[GLOBAL_ACC_W][RESERVATION_FAIL] = 7
	L2_cache_stats_breakdown[LOCAL_ACC_W][HIT] = 0
	L2_cache_stats_breakdown[LOCAL_ACC_W][HIT_RESERVED] = 0
	L2_cache_stats_breakdown[LOCAL_ACC_W][MISS] = 0
	L2_cache_stats_breakdown[LOCAL_ACC_W][RESERVATION_FAIL] = 0
	L2_cache_stats_breakdown[L1_WRBK_ACC][HIT] = 0
	L2_cache_stats_breakdown[L1_WRBK_ACC][HIT_RESERVED] = 0
	L2_cache_stats_breakdown[L1_WRBK_ACC][MISS] = 0
	L2_cache_stats_breakdown[L1_WRBK_ACC][RESERVATION_FAIL] = 0
	L2_cache_stats_breakdown[L2_WRBK_ACC][HIT] = 0
	L2_cache_stats_breakdown[L2_WRBK_ACC][HIT_RESERVED] = 0
	L2_cache_stats_breakdown[L2_WRBK_ACC][MISS] = 0
	L2_cache_stats_breakdown[L2_WRBK_ACC][RESERVATION_FAIL] = 0
	L2_cache_stats_breakdown[INST_ACC_R][HIT] = 92
	L2_cache_stats_breakdown[INST_ACC_R][HIT_RESERVED] = 367
	L2_cache_stats_breakdown[INST_ACC_R][MISS] = 17
	L2_cache_stats_breakdown[INST_ACC_R][RESERVATION_FAIL] = 0
	L2_cache_stats_breakdown[L1_WR_ALLOC_R][HIT] = 0
	L2_cache_stats_breakdown[L1_WR_ALLOC_R][HIT_RESERVED] = 0
	L2_cache_stats_breakdown[L1_WR_ALLOC_R][MISS] = 0
	L2_cache_stats_breakdown[L1_WR_ALLOC_R][RESERVATION_FAIL] = 0
	L2_cache_stats_breakdown[L2_WR_ALLOC_R][HIT] = 0
	L2_cache_stats_breakdown[L2_WR_ALLOC_R][HIT_RESERVED] = 0
	L2_cache_stats_breakdown[L2_WR_ALLOC_R][MISS] = 0
	L2_cache_stats_breakdown[L2_WR_ALLOC_R][RESERVATION_FAIL] = 0
	L2_cache_stats_breakdown[GLOBAL_ACC_R][TOTAL_ACCESS] = 1255360
	L2_cache_stats_breakdown[CONST_ACC_R][TOTAL_ACCESS] = 28
	L2_cache_stats_breakdown[GLOBAL_ACC_W][TOTAL_ACCESS] = 604800
	L2_cache_stats_breakdown[INST_ACC_R][TOTAL_ACCESS] = 476
L2_cache_data_port_util = 0.034
L2_cache_fill_port_util = 0.112

icnt_total_pkts_mem_to_simt=5976864
icnt_total_pkts_simt_to_mem=4279864
LD_mem_lat_dist  0 0 0 0 0 0 0 0 0 0 0 0 0 0 0 0 0 0 0 0 0 0 0 0 0 0 0
ST_mem_lat_dist  0 0 0 0 0 0 0 0 0 0 0 0 0 0 0 0 0 0 0 0 0 0 0 0 0 0 0
----------------------------Interconnect-DETAILS--------------------------------
Class 0:
Packet latency average = 8.53144
	minimum = 6
	maximum = 38
Network latency average = 8.4101
	minimum = 6
	maximum = 36
Slowest packet = 3630388
Flit latency average = 6.88248
	minimum = 6
	maximum = 32
Slowest flit = 10006500
Fragmentation average = 0
	minimum = 0
	maximum = 0
Injected packet rate average = 0.023858
	minimum = 0.0188795 (at node 0)
	maximum = 0.0283193 (at node 7)
Accepted packet rate average = 0.023858
	minimum = 0.0188795 (at node 0)
	maximum = 0.0283193 (at node 7)
Injected flit rate average = 0.0657562
	minimum = 0.043505 (at node 0)
	maximum = 0.087164 (at node 42)
Accepted flit rate average= 0.0657562
	minimum = 0.0605377 (at node 0)
	maximum = 0.0908065 (at node 7)
Injected packet length average = 2.75615
Accepted packet length average = 2.75615
Total in-flight flits = 0 (0 measured)
====== Overall Traffic Statistics ======
====== Traffic class 0 ======
Packet latency average = 9.08434 (40 samples)
	minimum = 6 (40 samples)
	maximum = 79.575 (40 samples)
Network latency average = 8.80175 (40 samples)
	minimum = 6 (40 samples)
	maximum = 77.35 (40 samples)
Flit latency average = 7.44332 (40 samples)
	minimum = 6 (40 samples)
	maximum = 73.675 (40 samples)
Fragmentation average = 0.04027 (40 samples)
	minimum = 0 (40 samples)
	maximum = 30.875 (40 samples)
Injected packet rate average = 0.0232767 (40 samples)
	minimum = 0.0184196 (40 samples)
	maximum = 0.0276291 (40 samples)
Accepted packet rate average = 0.0232767 (40 samples)
	minimum = 0.0184196 (40 samples)
	maximum = 0.0276291 (40 samples)
Injected flit rate average = 0.0641541 (40 samples)
	minimum = 0.0424445 (40 samples)
	maximum = 0.0850436 (40 samples)
Accepted flit rate average = 0.0641541 (40 samples)
	minimum = 0.0590635 (40 samples)
	maximum = 0.0885942 (40 samples)
Injected packet size average = 2.75615 (40 samples)
Accepted packet size average = 2.75615 (40 samples)
Hops average = 1 (40 samples)
----------------------------END-of-Interconnect-DETAILS-------------------------


gpgpu_simulation_time = 0 days, 1 hrs, 44 min, 49 sec (6289 sec)
gpgpu_simulation_rate = 183487 (inst/sec)
gpgpu_simulation_rate = 1734 (cycle/sec)
========================================UVM statistics==============================
========================================TLB statistics(access)==============================
Shader0: Tlb_access: 66226 Tlb_hit: 65730 Tlb_miss: 496 Tlb_hit_rate: 0.992510
Shader1: Tlb_access: 66812 Tlb_hit: 66128 Tlb_miss: 684 Tlb_hit_rate: 0.989762
Shader2: Tlb_access: 66812 Tlb_hit: 66128 Tlb_miss: 684 Tlb_hit_rate: 0.989762
Shader3: Tlb_access: 66812 Tlb_hit: 66068 Tlb_miss: 744 Tlb_hit_rate: 0.988864
Shader4: Tlb_access: 66812 Tlb_hit: 66068 Tlb_miss: 744 Tlb_hit_rate: 0.988864
Shader5: Tlb_access: 66812 Tlb_hit: 66068 Tlb_miss: 744 Tlb_hit_rate: 0.988864
Shader6: Tlb_access: 66812 Tlb_hit: 66068 Tlb_miss: 744 Tlb_hit_rate: 0.988864
Shader7: Tlb_access: 66812 Tlb_hit: 66128 Tlb_miss: 684 Tlb_hit_rate: 0.989762
Shader8: Tlb_access: 66812 Tlb_hit: 66128 Tlb_miss: 684 Tlb_hit_rate: 0.989762
Shader9: Tlb_access: 66812 Tlb_hit: 66316 Tlb_miss: 496 Tlb_hit_rate: 0.992576
Shader10: Tlb_access: 66812 Tlb_hit: 66316 Tlb_miss: 496 Tlb_hit_rate: 0.992576
Shader11: Tlb_access: 66812 Tlb_hit: 66316 Tlb_miss: 496 Tlb_hit_rate: 0.992576
Shader12: Tlb_access: 66812 Tlb_hit: 66316 Tlb_miss: 496 Tlb_hit_rate: 0.992576
Shader13: Tlb_access: 66226 Tlb_hit: 65730 Tlb_miss: 496 Tlb_hit_rate: 0.992510
Shader14: Tlb_access: 66226 Tlb_hit: 65730 Tlb_miss: 496 Tlb_hit_rate: 0.992510
Shader15: Tlb_access: 66076 Tlb_hit: 65580 Tlb_miss: 496 Tlb_hit_rate: 0.992494
Shader16: Tlb_access: 66076 Tlb_hit: 65580 Tlb_miss: 496 Tlb_hit_rate: 0.992494
Shader17: Tlb_access: 66076 Tlb_hit: 65580 Tlb_miss: 496 Tlb_hit_rate: 0.992494
Shader18: Tlb_access: 66076 Tlb_hit: 65580 Tlb_miss: 496 Tlb_hit_rate: 0.992494
Shader19: Tlb_access: 66226 Tlb_hit: 65730 Tlb_miss: 496 Tlb_hit_rate: 0.992510
Shader20: Tlb_access: 66226 Tlb_hit: 65730 Tlb_miss: 496 Tlb_hit_rate: 0.992510
Shader21: Tlb_access: 66226 Tlb_hit: 65730 Tlb_miss: 496 Tlb_hit_rate: 0.992510
Shader22: Tlb_access: 66226 Tlb_hit: 65730 Tlb_miss: 496 Tlb_hit_rate: 0.992510
Shader23: Tlb_access: 66076 Tlb_hit: 65580 Tlb_miss: 496 Tlb_hit_rate: 0.992494
Shader24: Tlb_access: 66076 Tlb_hit: 65580 Tlb_miss: 496 Tlb_hit_rate: 0.992494
Shader25: Tlb_access: 66076 Tlb_hit: 65580 Tlb_miss: 496 Tlb_hit_rate: 0.992494
Shader26: Tlb_access: 66076 Tlb_hit: 65580 Tlb_miss: 496 Tlb_hit_rate: 0.992494
Shader27: Tlb_access: 66226 Tlb_hit: 65730 Tlb_miss: 496 Tlb_hit_rate: 0.992510
Tlb_tot_access: 1860160 Tlb_tot_hit: 1844528, Tlb_tot_miss: 15632, Tlb_tot_hit_rate: 0.991596
========================================TLB statistics(validate)==============================
Shader0: Tlb_validate: 2 Tlb_invalidate: 2 Tlb_evict: 0 Tlb_page_evict: 2
Shader1: Tlb_validate: 2 Tlb_invalidate: 2 Tlb_evict: 0 Tlb_page_evict: 2
Shader2: Tlb_validate: 2 Tlb_invalidate: 2 Tlb_evict: 0 Tlb_page_evict: 2
Shader3: Tlb_validate: 2 Tlb_invalidate: 2 Tlb_evict: 0 Tlb_page_evict: 2
Shader4: Tlb_validate: 2 Tlb_invalidate: 2 Tlb_evict: 0 Tlb_page_evict: 2
Shader5: Tlb_validate: 2 Tlb_invalidate: 2 Tlb_evict: 0 Tlb_page_evict: 2
Shader6: Tlb_validate: 2 Tlb_invalidate: 2 Tlb_evict: 0 Tlb_page_evict: 2
Shader7: Tlb_validate: 2 Tlb_invalidate: 2 Tlb_evict: 0 Tlb_page_evict: 2
Shader8: Tlb_validate: 2 Tlb_invalidate: 2 Tlb_evict: 0 Tlb_page_evict: 2
Shader9: Tlb_validate: 2 Tlb_invalidate: 2 Tlb_evict: 0 Tlb_page_evict: 2
Shader10: Tlb_validate: 2 Tlb_invalidate: 2 Tlb_evict: 0 Tlb_page_evict: 2
Shader11: Tlb_validate: 2 Tlb_invalidate: 2 Tlb_evict: 0 Tlb_page_evict: 2
Shader12: Tlb_validate: 2 Tlb_invalidate: 2 Tlb_evict: 0 Tlb_page_evict: 2
Shader13: Tlb_validate: 2 Tlb_invalidate: 2 Tlb_evict: 0 Tlb_page_evict: 2
Shader14: Tlb_validate: 2 Tlb_invalidate: 2 Tlb_evict: 0 Tlb_page_evict: 2
Shader15: Tlb_validate: 2 Tlb_invalidate: 2 Tlb_evict: 0 Tlb_page_evict: 2
Shader16: Tlb_validate: 2 Tlb_invalidate: 2 Tlb_evict: 0 Tlb_page_evict: 2
Shader17: Tlb_validate: 2 Tlb_invalidate: 2 Tlb_evict: 0 Tlb_page_evict: 2
Shader18: Tlb_validate: 2 Tlb_invalidate: 2 Tlb_evict: 0 Tlb_page_evict: 2
Shader19: Tlb_validate: 2 Tlb_invalidate: 2 Tlb_evict: 0 Tlb_page_evict: 2
Shader20: Tlb_validate: 2 Tlb_invalidate: 2 Tlb_evict: 0 Tlb_page_evict: 2
Shader21: Tlb_validate: 2 Tlb_invalidate: 2 Tlb_evict: 0 Tlb_page_evict: 2
Shader22: Tlb_validate: 2 Tlb_invalidate: 2 Tlb_evict: 0 Tlb_page_evict: 2
Shader23: Tlb_validate: 2 Tlb_invalidate: 2 Tlb_evict: 0 Tlb_page_evict: 2
Shader24: Tlb_validate: 2 Tlb_invalidate: 2 Tlb_evict: 0 Tlb_page_evict: 2
Shader25: Tlb_validate: 2 Tlb_invalidate: 2 Tlb_evict: 0 Tlb_page_evict: 2
Shader26: Tlb_validate: 2 Tlb_invalidate: 2 Tlb_evict: 0 Tlb_page_evict: 2
Shader27: Tlb_validate: 2 Tlb_invalidate: 2 Tlb_evict: 0 Tlb_page_evict: 2
Tlb_tot_valiate: 56 Tlb_invalidate: 56, Tlb_tot_evict: 0, Tlb_tot_evict page: 56
========================================TLB statistics(threshing)==============================
Shader0: Total 0
Shader1: Total 0
Shader2: Total 0
Shader3: Total 0
Shader4: Total 0
Shader5: Total 0
Shader6: Total 0
Shader7: Total 0
Shader8: Total 0
Shader9: Total 0
Shader10: Total 0
Shader11: Total 0
Shader12: Total 0
Shader13: Total 0
Shader14: Total 0
Shader15: Total 0
Shader16: Total 0
Shader17: Total 0
Shader18: Total 0
Shader19: Total 0
Shader20: Total 0
Shader21: Total 0
Shader22: Total 0
Shader23: Total 0
Shader24: Total 0
Shader25: Total 0
Shader26: Total 0
Shader27: Total 0
Tlb_tot_thresh: 0
========================================Page fault statistics==============================
Shader0: Page_table_access:496 Page_hit: 0 Page_miss: 496 Page_hit_rate: 0.000000 Page_fault: 1 Page_pending: 495
Shader1: Page_table_access:684 Page_hit: 0 Page_miss: 684 Page_hit_rate: 0.000000 Page_fault: 1 Page_pending: 683
Shader2: Page_table_access:684 Page_hit: 0 Page_miss: 684 Page_hit_rate: 0.000000 Page_fault: 0 Page_pending: 684
Shader3: Page_table_access:744 Page_hit: 0 Page_miss: 744 Page_hit_rate: 0.000000 Page_fault: 0 Page_pending: 744
Shader4: Page_table_access:744 Page_hit: 0 Page_miss: 744 Page_hit_rate: 0.000000 Page_fault: 0 Page_pending: 744
Shader5: Page_table_access:744 Page_hit: 0 Page_miss: 744 Page_hit_rate: 0.000000 Page_fault: 0 Page_pending: 744
Shader6: Page_table_access:744 Page_hit: 0 Page_miss: 744 Page_hit_rate: 0.000000 Page_fault: 0 Page_pending: 744
Shader7: Page_table_access:684 Page_hit: 0 Page_miss: 684 Page_hit_rate: 0.000000 Page_fault: 0 Page_pending: 684
Shader8: Page_table_access:684 Page_hit: 0 Page_miss: 684 Page_hit_rate: 0.000000 Page_fault: 0 Page_pending: 684
Shader9: Page_table_access:496 Page_hit: 0 Page_miss: 496 Page_hit_rate: 0.000000 Page_fault: 0 Page_pending: 496
Shader10: Page_table_access:496 Page_hit: 0 Page_miss: 496 Page_hit_rate: 0.000000 Page_fault: 0 Page_pending: 496
Shader11: Page_table_access:496 Page_hit: 0 Page_miss: 496 Page_hit_rate: 0.000000 Page_fault: 0 Page_pending: 496
Shader12: Page_table_access:496 Page_hit: 0 Page_miss: 496 Page_hit_rate: 0.000000 Page_fault: 0 Page_pending: 496
Shader13: Page_table_access:496 Page_hit: 0 Page_miss: 496 Page_hit_rate: 0.000000 Page_fault: 0 Page_pending: 496
Shader14: Page_table_access:496 Page_hit: 0 Page_miss: 496 Page_hit_rate: 0.000000 Page_fault: 0 Page_pending: 496
Shader15: Page_table_access:496 Page_hit: 0 Page_miss: 496 Page_hit_rate: 0.000000 Page_fault: 0 Page_pending: 496
Shader16: Page_table_access:496 Page_hit: 0 Page_miss: 496 Page_hit_rate: 0.000000 Page_fault: 0 Page_pending: 496
Shader17: Page_table_access:496 Page_hit: 0 Page_miss: 496 Page_hit_rate: 0.000000 Page_fault: 0 Page_pending: 496
Shader18: Page_table_access:496 Page_hit: 0 Page_miss: 496 Page_hit_rate: 0.000000 Page_fault: 0 Page_pending: 496
Shader19: Page_table_access:496 Page_hit: 0 Page_miss: 496 Page_hit_rate: 0.000000 Page_fault: 0 Page_pending: 496
Shader20: Page_table_access:496 Page_hit: 0 Page_miss: 496 Page_hit_rate: 0.000000 Page_fault: 0 Page_pending: 496
Shader21: Page_table_access:496 Page_hit: 0 Page_miss: 496 Page_hit_rate: 0.000000 Page_fault: 0 Page_pending: 496
Shader22: Page_table_access:496 Page_hit: 0 Page_miss: 496 Page_hit_rate: 0.000000 Page_fault: 0 Page_pending: 496
Shader23: Page_table_access:496 Page_hit: 0 Page_miss: 496 Page_hit_rate: 0.000000 Page_fault: 0 Page_pending: 496
Shader24: Page_table_access:496 Page_hit: 0 Page_miss: 496 Page_hit_rate: 0.000000 Page_fault: 0 Page_pending: 496
Shader25: Page_table_access:496 Page_hit: 0 Page_miss: 496 Page_hit_rate: 0.000000 Page_fault: 0 Page_pending: 496
Shader26: Page_table_access:496 Page_hit: 0 Page_miss: 496 Page_hit_rate: 0.000000 Page_fault: 0 Page_pending: 496
Shader27: Page_table_access:496 Page_hit: 0 Page_miss: 496 Page_hit_rate: 0.000000 Page_fault: 0 Page_pending: 496
Page_talbe_tot_access: 15632 Page_tot_hit: 0, Page_tot_miss 15632, Page_tot_hit_rate: 0.000000 Page_tot_fault: 2 Page_tot_pending: 15630
Total_memory_access_page_fault: 2, Average_latency: 588217.000000
========================================Page threshing statistics==============================
Page_validate: 2 Page_evict_diry: 0 Page_evict_not_diry: 0
Page_tot_thresh: 0
========================================Memory access statistics==============================
========================================Prefetch statistics==============================
Tot_page_hit: 0, Tot_page_miss: 0, Tot_page_fault: 0
Avg_page_latency: 0.000000, Avg_prefetch_size: -nan, Avg_prefetch_latency: 0.000000
========================================PCI-e statistics==============================
Pcie_read_utilization: 0.749163
[0-25]: 0.000000, [26-50]: 0.000000, [51-75]: 1.000000, [76-100]: 0.000000
Pcie_write_utilization: 0.000000
[0-25]: -nan, [26-50]: -nan, [51-75]: -nan, [76-100]: -nan
F:   222150----T:   724149 	 	 	 Kl: 1 	 Sm: 0 	 T: kernel_launch(338.959473)
F:   223512----T:   465592 	 St: c0000000 Sz: 2097152 	 Sm: 0 	 T: memcpy_h2d(163.457123)
F:   468762----T:   710842 	 St: c0200000 Sz: 2097152 	 Sm: 0 	 T: memcpy_h2d(163.457123)
F:   946299----T:   984880 	 	 	 Kl: 2 	 Sm: 0 	 T: kernel_launch(26.050642)
F:  1207030----T:  1245925 	 	 	 Kl: 3 	 Sm: 0 	 T: kernel_launch(26.262661)
F:  1468075----T:  1507421 	 	 	 Kl: 4 	 Sm: 0 	 T: kernel_launch(26.567184)
F:  1729571----T:  1768382 	 	 	 Kl: 5 	 Sm: 0 	 T: kernel_launch(26.205942)
F:  1990532----T:  2029800 	 	 	 Kl: 6 	 Sm: 0 	 T: kernel_launch(26.514517)
F:  2251950----T:  2290731 	 	 	 Kl: 7 	 Sm: 0 	 T: kernel_launch(26.185686)
F:  2512881----T:  2551840 	 	 	 Kl: 8 	 Sm: 0 	 T: kernel_launch(26.305874)
F:  2773990----T:  2812742 	 	 	 Kl: 9 	 Sm: 0 	 T: kernel_launch(26.166103)
F:  3034892----T:  3074263 	 	 	 Kl: 10 	 Sm: 0 	 T: kernel_launch(26.584064)
F:  3296413----T:  3335157 	 	 	 Kl: 11 	 Sm: 0 	 T: kernel_launch(26.160702)
F:  3557307----T:  3596687 	 	 	 Kl: 12 	 Sm: 0 	 T: kernel_launch(26.590141)
F:  3818837----T:  3857733 	 	 	 Kl: 13 	 Sm: 0 	 T: kernel_launch(26.263336)
F:  4079883----T:  4119309 	 	 	 Kl: 14 	 Sm: 0 	 T: kernel_launch(26.621202)
F:  4341459----T:  4380228 	 	 	 Kl: 15 	 Sm: 0 	 T: kernel_launch(26.177582)
F:  4602378----T:  4641711 	 	 	 Kl: 16 	 Sm: 0 	 T: kernel_launch(26.558407)
F:  4863861----T:  4902819 	 	 	 Kl: 17 	 Sm: 0 	 T: kernel_launch(26.305199)
F:  5124969----T:  5164095 	 	 	 Kl: 18 	 Sm: 0 	 T: kernel_launch(26.418636)
F:  5386245----T:  5425092 	 	 	 Kl: 19 	 Sm: 0 	 T: kernel_launch(26.230249)
F:  5647242----T:  5686651 	 	 	 Kl: 20 	 Sm: 0 	 T: kernel_launch(26.609724)
F:  5908801----T:  5947742 	 	 	 Kl: 21 	 Sm: 0 	 T: kernel_launch(26.293720)
F:  6169892----T:  6209027 	 	 	 Kl: 22 	 Sm: 0 	 T: kernel_launch(26.424713)
F:  6431177----T:  6470013 	 	 	 Kl: 23 	 Sm: 0 	 T: kernel_launch(26.222822)
F:  6692163----T:  6731195 	 	 	 Kl: 24 	 Sm: 0 	 T: kernel_launch(26.355165)
F:  6953345----T:  6992239 	 	 	 Kl: 25 	 Sm: 0 	 T: kernel_launch(26.261986)
F:  7214389----T:  7253459 	 	 	 Kl: 26 	 Sm: 0 	 T: kernel_launch(26.380823)
F:  7475609----T:  7514406 	 	 	 Kl: 27 	 Sm: 0 	 T: kernel_launch(26.196489)
F:  7736556----T:  7775667 	 	 	 Kl: 28 	 Sm: 0 	 T: kernel_launch(26.408508)
F:  7997817----T:  8036719 	 	 	 Kl: 29 	 Sm: 0 	 T: kernel_launch(26.267387)
F:  8258869----T:  8298236 	 	 	 Kl: 30 	 Sm: 0 	 T: kernel_launch(26.581364)
F:  8520386----T:  8559164 	 	 	 Kl: 31 	 Sm: 0 	 T: kernel_launch(26.183661)
F:  8781314----T:  8820673 	 	 	 Kl: 32 	 Sm: 0 	 T: kernel_launch(26.575962)
F:  9042823----T:  9081727 	 	 	 Kl: 33 	 Sm: 0 	 T: kernel_launch(26.268738)
F:  9303877----T:  9343328 	 	 	 Kl: 34 	 Sm: 0 	 T: kernel_launch(26.638083)
F:  9565478----T:  9604425 	 	 	 Kl: 35 	 Sm: 0 	 T: kernel_launch(26.297771)
F:  9826575----T:  9865664 	 	 	 Kl: 36 	 Sm: 0 	 T: kernel_launch(26.393654)
F: 10087814----T: 10126621 	 	 	 Kl: 37 	 Sm: 0 	 T: kernel_launch(26.203241)
F: 10348771----T: 10388093 	 	 	 Kl: 38 	 Sm: 0 	 T: kernel_launch(26.550980)
F: 10610243----T: 10649410 	 	 	 Kl: 39 	 Sm: 0 	 T: kernel_launch(26.446320)
F: 10871560----T: 10910545 	 	 	 Kl: 40 	 Sm: 0 	 T: kernel_launch(26.323431)
F: 10910545----T: 10913150 	 St: 0 Sz: 4096 	 Sm: 0 	 T: device_sync(1.758947)
F: 10910545----T: 10918785 	 St: 0 Sz: 61440 	 Sm: 0 	 T: device_sync(5.563808)
F: 10921390----T: 10923995 	 St: 0 Sz: 4096 	 Sm: 0 	 T: device_sync(1.758947)
F: 10921390----T: 10929630 	 St: 0 Sz: 61440 	 Sm: 0 	 T: device_sync(5.563808)
F: 10932235----T: 10934840 	 St: 0 Sz: 4096 	 Sm: 0 	 T: device_sync(1.758947)
F: 10932235----T: 10947930 	 St: 0 Sz: 126976 	 Sm: 0 	 T: device_sync(10.597569)
F: 10950535----T: 10953140 	 St: 0 Sz: 4096 	 Sm: 0 	 T: device_sync(1.758947)
F: 10950535----T: 10981258 	 St: 0 Sz: 258048 	 Sm: 0 	 T: device_sync(20.744766)
F: 10983863----T: 10986468 	 St: 0 Sz: 4096 	 Sm: 0 	 T: device_sync(1.758947)
F: 10983863----T: 11044699 	 St: 0 Sz: 520192 	 Sm: 0 	 T: device_sync(41.077652)
F: 11047304----T: 11049909 	 St: 0 Sz: 4096 	 Sm: 0 	 T: device_sync(1.758947)
F: 11047304----T: 11168393 	 St: 0 Sz: 1044480 	 Sm: 0 	 T: device_sync(81.761650)
F: 11170998----T: 11173603 	 St: 0 Sz: 4096 	 Sm: 0 	 T: device_sync(1.758947)
F: 11170998----T: 11179238 	 St: 0 Sz: 61440 	 Sm: 0 	 T: device_sync(5.563808)
F: 11181843----T: 11184448 	 St: 0 Sz: 4096 	 Sm: 0 	 T: device_sync(1.758947)
F: 11181843----T: 11190083 	 St: 0 Sz: 61440 	 Sm: 0 	 T: device_sync(5.563808)
F: 11192688----T: 11195293 	 St: 0 Sz: 4096 	 Sm: 0 	 T: device_sync(1.758947)
F: 11192688----T: 11208383 	 St: 0 Sz: 126976 	 Sm: 0 	 T: device_sync(10.597569)
F: 11210988----T: 11213593 	 St: 0 Sz: 4096 	 Sm: 0 	 T: device_sync(1.758947)
F: 11210988----T: 11241711 	 St: 0 Sz: 258048 	 Sm: 0 	 T: device_sync(20.744766)
F: 11244316----T: 11246921 	 St: 0 Sz: 4096 	 Sm: 0 	 T: device_sync(1.758947)
F: 11244316----T: 11305152 	 St: 0 Sz: 520192 	 Sm: 0 	 T: device_sync(41.077652)
F: 11307757----T: 11310362 	 St: 0 Sz: 4096 	 Sm: 0 	 T: device_sync(1.758947)
F: 11307757----T: 11428846 	 St: 0 Sz: 1044480 	 Sm: 0 	 T: device_sync(81.761650)
Tot_prefetch_time: 0(cycle), 0.000000(us)
Tot_kernel_exec_time: 2024545(cycle), 1367.012207(us)
Tot_kernel_exec_time_and_fault_time: 2157835(cycle), 1457.012207(us)
Tot_memcpy_h2d_time: 484160(cycle), 326.914246(us)
Tot_memcpy_d2h_time: 0(cycle), 0.000000(us)
Tot_memcpy_time: 484160(cycle), 326.914246(us)
Tot_devicesync_time: 520906(cycle), 351.725861(us)
Tot_writeback_time: 0(cycle), 0.000000(us)
Tot_memcpy_d2h_sync_wb_time: 520906(cycle), 351.725861(us)
GPGPU-Sim: *** exit detected ***
