

        *** GPGPU-Sim Simulator Version 3.2.2  [build gpgpu-sim_git-commit-c8c883f82f149f8a735f810bff4b4328d99c95c2_modified_0] ***


GPGPU-Sim PTX: simulation mode 0 (can change with PTX_SIM_MODE_FUNC environment variable:
               1=functional simulation only, 0=detailed performance simulator)
GPGPU-Sim: Configuration options:

-network_mode                           1 # Interconnection network mode
-inter_config_file   config_fermi_islip.icnt # Interconnection network config file
-gpgpu_ptx_use_cuobjdump                    1 # Use cuobjdump to extract ptx and sass from binaries
-gpgpu_experimental_lib_support                    0 # Try to extract code from cuda libraries [Broken because of unknown cudaGetExportTable]
-gpgpu_ptx_convert_to_ptxplus                    0 # Convert SASS (native ISA) to ptxplus and run ptxplus
-gpgpu_ptx_force_max_capability                   20 # Force maximum compute capability
-gpgpu_ptx_inst_debug_to_file                    0 # Dump executed instructions' debug information to file
-gpgpu_ptx_inst_debug_file       inst_debug.txt # Executed instructions' debug output file
-gpgpu_ptx_inst_debug_thread_uid                    1 # Thread UID for executed instructions' debug output
-gpgpu_simd_model                       1 # 1 = post-dominator
-gpgpu_shader_core_pipeline              2048:32 # shader core pipeline config, i.e., {<nthread>:<warpsize>}
-gpgpu_tex_cache:l1  16:128:24,L:R:m:N:L,F:128:4,128:2 # per-shader L1 texture cache  (READ-ONLY) config  {<nsets>:<bsize>:<assoc>,<rep>:<wr>:<alloc>:<wr_alloc>,<mshr>:<N>:<merge>,<mq>:<rf>}
-gpgpu_const_cache:l1 128:64:2,L:R:f:N:L,A:2:64,4 # per-shader L1 constant memory cache  (READ-ONLY) config  {<nsets>:<bsize>:<assoc>,<rep>:<wr>:<alloc>:<wr_alloc>,<mshr>:<N>:<merge>,<mq>} 
-gpgpu_cache:il1     8:128:4,L:R:f:N:L,A:2:48,4 # shader L1 instruction cache config  {<nsets>:<bsize>:<assoc>,<rep>:<wr>:<alloc>:<wr_alloc>,<mshr>:<N>:<merge>,<mq>} 
-gpgpu_cache:dl1     64:128:6,L:L:m:N:H,A:128:8,8 # per-shader L1 data cache config  {<nsets>:<bsize>:<assoc>,<rep>:<wr>:<alloc>:<wr_alloc>,<mshr>:<N>:<merge>,<mq> | none}
-gpgpu_cache:dl1PrefL1                 none # per-shader L1 data cache config  {<nsets>:<bsize>:<assoc>,<rep>:<wr>:<alloc>:<wr_alloc>,<mshr>:<N>:<merge>,<mq> | none}
-gpgpu_cache:dl1PrefShared                 none # per-shader L1 data cache config  {<nsets>:<bsize>:<assoc>,<rep>:<wr>:<alloc>:<wr_alloc>,<mshr>:<N>:<merge>,<mq> | none}
-gmem_skip_L1D                          1 # global memory access skip L1D cache (implements -Xptxas -dlcm=cg, default=no skip)
-gpgpu_perfect_mem                      0 # enable perfect memory mode (no cache miss)
-n_regfile_gating_group                    4 # group of lanes that should be read/written together)
-gpgpu_clock_gated_reg_file                    0 # enable clock gated reg file for power calculations
-gpgpu_clock_gated_lanes                    0 # enable clock gated lanes for power calculations
-gpgpu_shader_registers                65536 # Number of registers per shader core. Limits number of concurrent CTAs. (default 8192)
-gpgpu_shader_cta                      32 # Maximum number of concurrent CTAs in shader (default 8)
-gpgpu_num_cta_barriers                   16 # Maximum number of named barriers per CTA (default 16)
-gpgpu_n_clusters                      28 # number of processing clusters
-gpgpu_n_cores_per_cluster                    1 # number of simd cores per cluster
-gpgpu_n_cluster_ejection_buffer_size                    8 # number of packets in ejection buffer
-gpgpu_n_ldst_response_buffer_size                    2 # number of response packets in ld/st unit ejection buffer
-gpgpu_shmem_size                   16384 # Size of shared memory per shader core (default 16kB)
-gpgpu_shmem_size                   98304 # Size of shared memory per shader core (default 16kB)
-gpgpu_shmem_size_PrefL1                16384 # Size of shared memory per shader core (default 16kB)
-gpgpu_shmem_size_PrefShared                16384 # Size of shared memory per shader core (default 16kB)
-gpgpu_shmem_num_banks                   32 # Number of banks in the shared memory in each shader core (default 16)
-gpgpu_shmem_limited_broadcast                    0 # Limit shared memory to do one broadcast per cycle (default on)
-gpgpu_shmem_warp_parts                    1 # Number of portions a warp is divided into for shared memory bank conflict check 
-gpgpu_warpdistro_shader                   -1 # Specify which shader core to collect the warp size distribution from
-gpgpu_warp_issue_shader                    0 # Specify which shader core to collect the warp issue distribution from
-gpgpu_local_mem_map                    1 # Mapping from local memory space address to simulated GPU physical address space (default = enabled)
-gpgpu_num_reg_banks                   32 # Number of register banks (default = 8)
-gpgpu_reg_bank_use_warp_id                    0 # Use warp ID in mapping registers to banks (default = off)
-gpgpu_operand_collector_num_units_sp                   20 # number of collector units (default = 4)
-gpgpu_operand_collector_num_units_sfu                    4 # number of collector units (default = 4)
-gpgpu_operand_collector_num_units_mem                    8 # number of collector units (default = 2)
-gpgpu_operand_collector_num_units_gen                    0 # number of collector units (default = 0)
-gpgpu_operand_collector_num_in_ports_sp                    4 # number of collector unit in ports (default = 1)
-gpgpu_operand_collector_num_in_ports_sfu                    1 # number of collector unit in ports (default = 1)
-gpgpu_operand_collector_num_in_ports_mem                    1 # number of collector unit in ports (default = 1)
-gpgpu_operand_collector_num_in_ports_gen                    0 # number of collector unit in ports (default = 0)
-gpgpu_operand_collector_num_out_ports_sp                    4 # number of collector unit in ports (default = 1)
-gpgpu_operand_collector_num_out_ports_sfu                    1 # number of collector unit in ports (default = 1)
-gpgpu_operand_collector_num_out_ports_mem                    1 # number of collector unit in ports (default = 1)
-gpgpu_operand_collector_num_out_ports_gen                    0 # number of collector unit in ports (default = 0)
-gpgpu_coalesce_arch                   13 # Coalescing arch (default = 13, anything else is off for now)
-gpgpu_num_sched_per_core                    2 # Number of warp schedulers per core
-gpgpu_max_insn_issue_per_warp                    2 # Max number of instructions that can be issued per warp in one cycle by scheduler
-gpgpu_simt_core_sim_order                    1 # Select the simulation order of cores in a cluster (0=Fix, 1=Round-Robin)
-gpgpu_pipeline_widths        4,1,1,4,1,1,6 # Pipeline widths ID_OC_SP,ID_OC_SFU,ID_OC_MEM,OC_EX_SP,OC_EX_SFU,OC_EX_MEM,EX_WB
-gpgpu_num_sp_units                     4 # Number of SP units (default=1)
-gpgpu_num_sfu_units                    1 # Number of SF units (default=1)
-gpgpu_num_mem_units                    1 # Number if ldst units (default=1) WARNING: not hooked up to anything
-gpgpu_scheduler                      gto # Scheduler configuration: < lrr | gto | two_level_active > If two_level_active:<num_active_warps>:<inner_prioritization>:<outer_prioritization>For complete list of prioritization values see shader.h enum scheduler_prioritization_typeDefault: gto
-gpgpu_concurrent_kernel_sm                    0 # Support concurrent kernels on a SM (default = disabled)
-tlb_size                            4096 # Number of tlb entries per SM.
-gpgpu_dram_scheduler                    1 # 0 = fifo, 1 = FR-FCFS (defaul)
-gpgpu_dram_partition_queues              8:8:8:8 # i2$:$2d:d2$:$2i
-l2_ideal                               0 # Use a ideal L2 cache that always hit
-gpgpu_cache:dl2     64:128:16,L:B:m:W:L,A:1024:1024,4:0,32 # unified banked L2 data cache config  {<nsets>:<bsize>:<assoc>,<rep>:<wr>:<alloc>:<wr_alloc>,<mshr>:<N>:<merge>,<mq>}
-gpgpu_cache:dl2_texture_only                    0 # L2 cache used for texture only
-gpgpu_n_mem                           11 # number of memory modules (e.g. memory controllers) in gpu
-gpgpu_n_sub_partition_per_mchannel                    2 # number of memory subpartition in each memory module
-gpgpu_n_mem_per_ctrlr                    1 # number of memory chips per memory controller
-gpgpu_memlatency_stat                   14 # track and display latency statistics 0x2 enables MC, 0x4 enables queue logs
-gpgpu_frfcfs_dram_sched_queue_size                   64 # 0 = unlimited (default); # entries per chip
-gpgpu_dram_return_queue_size                  116 # 0 = unlimited (default); # entries per chip
-gpgpu_dram_buswidth                    4 # default = 4 bytes (8 bytes per cycle at DDR)
-gpgpu_dram_burst_length                    8 # Burst length of each DRAM request (default = 4 data bus cycle)
-dram_data_command_freq_ratio                    4 # Frequency ratio between DRAM data bus and command bus (default = 2 times, i.e. DDR)
-gpgpu_dram_timing_opt nbk=16:CCD=2:RRD=6:RCD=12:RAS=28:RP=12:RC=40: CL=12:WL=4:CDLR=5:WR=12:nbkgrp=1:CCDL=0:RTPL=0 # DRAM timing parameters = {nbk:tCCD:tRRD:tRCD:tRAS:tRP:tRC:CL:WL:tCDLR:tWR:nbkgrp:tCCDL:tRTPL}
-rop_latency                          120 # ROP queue latency (default 85)
-dram_latency                         100 # DRAM latency (default 30)
-gpgpu_mem_addr_mapping dramid@8;00000000.00000000.00000000.00000000.0000RRRR.RRRRRRRR.RBBBCCCC.BCCSSSSS # mapping memory address to dram model {dramid@<start bit>;<memory address map>}
-gpgpu_mem_addr_test                    0 # run sweep test to check address mapping for aliased address
-gpgpu_mem_address_mask                    1 # 0 = old addressing mask, 1 = new addressing mask, 2 = new add. mask + flipped bank sel and chip sel bits
-gpuwattch_xml_file  gpuwattch_geforcegtx1080ti.xml # GPUWattch XML file
-power_simulation_enabled                    1 # Turn on power simulator (1=On, 0=Off)
-power_per_cycle_dump                    0 # Dump detailed power output each cycle
-power_trace_enabled                    0 # produce a file for the power trace (1=On, 0=Off)
-power_trace_zlevel                     6 # Compression level of the power trace output log (0=no comp, 9=highest)
-steady_power_levels_enabled                    0 # produce a file for the steady power levels (1=On, 0=Off)
-steady_state_definition                  8:4 # allowed deviation:number of samples
-gpgpu_max_cycle                        0 # terminates gpu simulation early (0 = no limit)
-gpgpu_max_insn                         0 # terminates gpu simulation early (0 = no limit)
-gpgpu_max_cta                          0 # terminates gpu simulation early (0 = no limit)
-gpgpu_runtime_stat                   500 # display runtime statistics such as dram utilization {<freq>:<flag>}
-liveness_message_freq                    1 # Minimum number of seconds between simulation liveness messages (0 = always print)
-gpgpu_flush_l1_cache                    0 # Flush L1 cache at the end of each kernel call
-gpgpu_flush_l2_cache                    0 # Flush L2 cache at the end of each kernel call
-gpgpu_deadlock_detect                    0 # Stop the simulation at deadlock (1=on (default), 0=off)
-gpgpu_ptx_instruction_classification                    0 # if enabled will classify ptx instruction types per kernel (Max 255 kernels now)
-gpgpu_ptx_sim_mode                     0 # Select between Performance (default) or Functional simulation (1)
-gpgpu_clock_domains 1481.0:2962.0:1481.0:2750.0 # Clock Domain Frequencies in MhZ {<Core Clock>:<ICNT Clock>:<L2 Clock>:<DRAM Clock>}
-gpgpu_max_concurrent_kernel                    8 # maximum kernels that can run concurrently on GPU
-gpgpu_cflog_interval                    0 # Interval between each snapshot in control flow logger
-visualizer_enabled                     0 # Turn on visualizer output (1=On, 0=Off)
-visualizer_outputfile                 NULL # Specifies the output log file for visualizer
-visualizer_zlevel                      6 # Compression level of the visualizer output log (0=no comp, 9=highest)
-trace_enabled                          0 # Turn on traces
-trace_components                    none # comma seperated list of traces to enable. Complete list found in trace_streams.tup. Default none
-trace_sampling_core                    0 # The core which is printed using CORE_DPRINTF. Default 0
-trace_sampling_memory_partition                   -1 # The memory partition which is printed using MEMPART_DPRINTF. Default -1 (i.e. all)
-gddr_size                            1GB # Size of GDDR in MB/GB.(GLOBAL_HEAP_START, GLOBAL_HEAP_START + gddr_size) would be used for unmanged memory, (GLOBAL_HEAP_START + gddr_size, GLOBAL_HEAP_START + gddr_size*2) would be used for managed memory. 
-page_table_walk_latency                  100 # Average page table walk latency (in core cycle).
-eviction_policy                        0 # Select page eviction policy
-invalidate_clean                       0 # Should directly invalidate clean pages
-reserve_accessed_page_percent                    0 # Percentage of accessed pages reserved from eviction in hope that they will be accessed in next iteration.
-percentage_of_free_page_buffer                    0 # Percentage of free page buffer to trigger the page eviction.
-page_size                            4KB # GDDR page size, only 4KB/2MB avaliable.
-pcie_bandwidth                  16.0GB/s # PCI-e bandwidth per direction, in GB/s.
-enable_dma                             2 # Enable direct access to CPU memory
-multiply_dma_penalty                    2 # Oversubscription Multiplicative Penalty Factor for Adaptive DMA
-migrate_threshold                      8 # Access counter threshold for migrating the page from cpu to gpu
-sim_prof_enable                        1 # Enable gpgpu-sim profiler
-hardware_prefetch                      1 # Select gpgpu-sim hardware prefetcher
-hwprefetch_oversub                     1 # Select gpgpu-sim hardware prefetcher under over-subscription
-page_fault_latency                 66645 # Average fault latency (in core cycle).
-enable_accurate_simulation                    0 # Enable page fault functional simulation.
-enable_ptx_file_line_stats                    1 # Turn on PTX source line statistic profiling. (1 = On)
-ptx_line_stats_filename gpgpu_inst_stats.txt # Output file for PTX source line statistics.
-gpgpu_kernel_launch_latency               222150 # Kernel launch latency in cycles. Default: 0
-gpgpu_cdp_enabled                      0 # Turn on CDP
-save_embedded_ptx                      0 # saves ptx files embedded in binary as <n>.ptx
-keep                                   0 # keep intermediate files created by GPGPU-Sim when interfacing with external programs
-gpgpu_ptx_save_converted_ptxplus                    0 # Saved converted ptxplus to a file
-ptx_opcode_latency_int         4,13,4,5,145 # Opcode latencies for integers <ADD,MAX,MUL,MAD,DIV>Default 1,1,19,25,145
-ptx_opcode_latency_fp          4,13,4,5,39 # Opcode latencies for single precision floating points <ADD,MAX,MUL,MAD,DIV>Default 1,1,1,1,30
-ptx_opcode_latency_dp         8,19,8,8,330 # Opcode latencies for double precision floating points <ADD,MAX,MUL,MAD,DIV>Default 8,8,8,8,335
-ptx_opcode_initiation_int            1,2,2,2,8 # Opcode initiation intervals for integers <ADD,MAX,MUL,MAD,DIV>Default 1,1,4,4,32
-ptx_opcode_initiation_fp            1,2,1,1,4 # Opcode initiation intervals for single precision floating points <ADD,MAX,MUL,MAD,DIV>Default 1,1,1,1,5
-ptx_opcode_initiation_dp          1,2,1,1,130 # Opcode initiation intervals for double precision floating points <ADD,MAX,MUL,MAD,DIV>Default 8,8,8,8,130
-cdp_latency         7200,8000,100,12000,1600 # CDP API latency <cudaStreamCreateWithFlags, cudaGetParameterBufferV2_init_perWarp, cudaGetParameterBufferV2_perKernel, cudaLaunchDeviceV2_init_perWarp, cudaLaunchDevicV2_perKernel>Default 7200,8000,100,12000,1600
DRAM Timing Options:
nbk                                    16 # number of banks
CCD                                     2 # column to column delay
RRD                                     6 # minimal delay between activation of rows in different banks
RCD                                    12 # row to column delay
RAS                                    28 # time needed to activate row
RP                                     12 # time needed to precharge (deactivate) row
RC                                     40 # row cycle time
CDLR                                    5 # switching from write to read (changes tWTR)
WR                                     12 # last data-in to row precharge
CL                                     12 # CAS latency
WL                                      4 # Write latency
nbkgrp                                  1 # number of bank groups
CCDL                                    0 # column to column delay between accesses to different bank groups
RTPL                                    0 # read to precharge delay between accesses to different bank groups
Total number of memory sub partition = 22
addr_dec_mask[CHIP]  = 0000000000000000 	high:64 low:0
addr_dec_mask[BK]    = 0000000000007080 	high:15 low:7
addr_dec_mask[ROW]   = 000000000fff8000 	high:28 low:15
addr_dec_mask[COL]   = 0000000000000f7f 	high:12 low:0
addr_dec_mask[BURST] = 000000000000001f 	high:5 low:0
sub_partition_id_mask = 0000000000000080
GPGPU-Sim uArch: clock freqs: 1481000000.000000:2962000000.000000:1481000000.000000:2750000000.000000
GPGPU-Sim uArch: clock periods: 0.00000000067521944632:0.00000000033760972316:0.00000000067521944632:0.00000000036363636364
*** Initializing Memory Statistics ***
GPGPU-Sim uArch: interconnect node map (shaderID+MemID to icntID)
GPGPU-Sim uArch: Memory nodes ID start from index: 28
GPGPU-Sim uArch:    0   1   2   3   4   5   6
GPGPU-Sim uArch:    7   8   9  10  11  12  13
GPGPU-Sim uArch:   14  15  16  17  18  19  20
GPGPU-Sim uArch:   21  22  23  24  25  26  27
GPGPU-Sim uArch:   28  29  30  31  32  33  34
GPGPU-Sim uArch:   35  36  37  38  39  40  41
GPGPU-Sim uArch:   42  43  44  45  46  47  48
GPGPU-Sim uArch:   49
GPGPU-Sim uArch: interconnect node reverse map (icntID to shaderID+MemID)
GPGPU-Sim uArch: Memory nodes start from ID: 28
GPGPU-Sim uArch:    0   1   2   3   4   5   6
GPGPU-Sim uArch:    7   8   9  10  11  12  13
GPGPU-Sim uArch:   14  15  16  17  18  19  20
GPGPU-Sim uArch:   21  22  23  24  25  26  27
GPGPU-Sim uArch:   28  29  30  31  32  33  34
GPGPU-Sim uArch:   35  36  37  38  39  40  41
GPGPU-Sim uArch:   42  43  44  45  46  47  48
GPGPU-Sim uArch:   49
74c5737c297eaf7460f010f32b7bccc0  /root/gpgpu-sim_UVMSmart/benchmarks/Managed/bfs/bfs
GPGPU-Sim uArch: performance model initialization complete.
GPGPU-Sim PTX: __cudaRegisterFatBinary, fat_cubin_handle = 1, filename=default
self exe links to: /root/gpgpu-sim_UVMSmart/benchmarks/Managed/bfs/bfs
Running md5sum using "md5sum /root/gpgpu-sim_UVMSmart/benchmarks/Managed/bfs/bfs "
Parsing file _cuobjdump_complete_output_jufwZn
######### cuobjdump parser ########
## Adding new section ELF
Adding arch: sm_20
Adding identifier: default
## Adding new section ELF
Adding arch: sm_20
Adding identifier: default
## Adding new section PTX
Adding ptx filename: _cuobjdump_1.ptx
Adding arch: sm_20
Adding identifier: default
Done parsing!!!
GPGPU-Sim PTX: __cudaRegisterFunction _Z7Kernel2PbS_S_S_i : hostFun 0x0x401649, fat_cubin_handle = 1
GPGPU-Sim PTX: instruction assembly for function '_Z6KernelP4NodePiPbS2_S2_S1_i'...   done.
GPGPU-Sim PTX: finding reconvergence points for '_Z6KernelP4NodePiPbS2_S2_S1_i'...
GPGPU-Sim PTX: Finding dominators for '_Z6KernelP4NodePiPbS2_S2_S1_i'...
GPGPU-Sim PTX: Finding immediate dominators for '_Z6KernelP4NodePiPbS2_S2_S1_i'...
GPGPU-Sim PTX: Finding postdominators for '_Z6KernelP4NodePiPbS2_S2_S1_i'...
GPGPU-Sim PTX: Finding immediate postdominators for '_Z6KernelP4NodePiPbS2_S2_S1_i'...
GPGPU-Sim PTX: pre-decoding instructions for '_Z6KernelP4NodePiPbS2_S2_S1_i'...
GPGPU-Sim PTX: reconvergence points for _Z6KernelP4NodePiPbS2_S2_S1_i...
GPGPU-Sim PTX:  1 (potential) branch divergence @  PC=0x060 (_1.ptx:42) @%p1 bra BB0_7;
GPGPU-Sim PTX:    immediate post dominator      @  PC=0x1e8 (_1.ptx:101) ret;
GPGPU-Sim PTX:  2 (potential) branch divergence @  PC=0x090 (_1.ptx:49) @%p2 bra BB0_7;
GPGPU-Sim PTX:    immediate post dominator      @  PC=0x1e8 (_1.ptx:101) ret;
GPGPU-Sim PTX:  3 (potential) branch divergence @  PC=0x0d8 (_1.ptx:59) @%p3 bra BB0_7;
GPGPU-Sim PTX:    immediate post dominator      @  PC=0x1e8 (_1.ptx:101) ret;
GPGPU-Sim PTX:  4 (potential) branch divergence @  PC=0x160 (_1.ptx:79) @%p4 bra BB0_6;
GPGPU-Sim PTX:    immediate post dominator      @  PC=0x1b8 (_1.ptx:93) mov.u32 %r24, %r25;
GPGPU-Sim PTX:  5 (potential) branch divergence @  PC=0x1e0 (_1.ptx:98) @%p5 bra BB0_4;
GPGPU-Sim PTX:    immediate post dominator      @  PC=0x1e8 (_1.ptx:101) ret;
GPGPU-Sim PTX: ... end of reconvergence points for _Z6KernelP4NodePiPbS2_S2_S1_i
GPGPU-Sim PTX: ... done pre-decoding instructions for '_Z6KernelP4NodePiPbS2_S2_S1_i'.
GPGPU-Sim PTX: instruction assembly for function '_Z7Kernel2PbS_S_S_i'...   done.
GPGPU-Sim PTX: finding reconvergence points for '_Z7Kernel2PbS_S_S_i'...
GPGPU-Sim PTX: Finding dominators for '_Z7Kernel2PbS_S_S_i'...
GPGPU-Sim PTX: Finding immediate dominators for '_Z7Kernel2PbS_S_S_i'...
GPGPU-Sim PTX: Finding postdominators for '_Z7Kernel2PbS_S_S_i'...
GPGPU-Sim PTX: Finding immediate postdominators for '_Z7Kernel2PbS_S_S_i'...
GPGPU-Sim PTX: pre-decoding instructions for '_Z7Kernel2PbS_S_S_i'...
GPGPU-Sim PTX: reconvergence points for _Z7Kernel2PbS_S_S_i...
GPGPU-Sim PTX:  1 (potential) branch divergence @  PC=0x240 (_1.ptx:129) @%p1 bra BB1_3;
GPGPU-Sim PTX:    immediate post dominator      @  PC=0x2d0 (_1.ptx:151) ret;
GPGPU-Sim PTX:  2 (potential) branch divergence @  PC=0x270 (_1.ptx:136) @%p2 bra BB1_3;
GPGPU-Sim PTX:    immediate post dominator      @  PC=0x2d0 (_1.ptx:151) ret;
GPGPU-Sim PTX: ... end of reconvergence points for _Z7Kernel2PbS_S_S_i
GPGPU-Sim PTX: ... done pre-decoding instructions for '_Z7Kernel2PbS_S_S_i'.
GPGPU-Sim PTX: finished parsing EMBEDDED .ptx file _1.ptx
Adding _cuobjdump_1.ptx with cubin handle 1
GPGPU-Sim PTX: extracting embedded .ptx to temporary file "_ptx_gkh5EN"
Running: cat _ptx_gkh5EN | sed 's/.version 1.5/.version 1.4/' | sed 's/, texmode_independent//' | sed 's/\(\.extern \.const\[1\] .b8 \w\+\)\[\]/\1\[1\]/' | sed 's/const\[.\]/const\[0\]/g' > _ptx2_t45Ekd
GPGPU-Sim PTX: generating ptxinfo using "$CUDA_INSTALL_PATH/bin/ptxas --gpu-name=sm_20 -v _ptx2_t45Ekd --output-file  /dev/null 2> _ptx_gkh5ENinfo"
GPGPU-Sim PTX: Kernel '_Z7Kernel2PbS_S_S_i' : regs=12, lmem=0, smem=0, cmem=68
GPGPU-Sim PTX: Kernel '_Z6KernelP4NodePiPbS2_S2_S1_i' : regs=15, lmem=0, smem=0, cmem=84
GPGPU-Sim PTX: removing ptxinfo using "rm -f _ptx_gkh5EN _ptx2_t45Ekd _ptx_gkh5ENinfo"
GPGPU-Sim PTX: loading globals with explicit initializers... 
GPGPU-Sim PTX: finished loading globals (0 bytes total).
GPGPU-Sim PTX: loading constants with explicit initializers...  done.
GPGPU-Sim PTX: __cudaRegisterFunction _Z6KernelP4NodePiPbS2_S2_S1_i : hostFun 0x0x401519, fat_cubin_handle = 1
Reading File
Read File
Copied Everything to GPU memory
Start traversing the tree

GPGPU-Sim PTX: cudaLaunch for 0x0x401519 (mode=performance simulation) on stream 0
GPGPU-Sim PTX: pushing kernel '_Z6KernelP4NodePiPbS2_S2_S1_i' to stream 0, gridDim= (511,1,1) blockDim = (512,1,1) 
GPGPU-Sim uArch: Shader 1 bind to kernel 1 '_Z6KernelP4NodePiPbS2_S2_S1_i'
GPGPU-Sim uArch: CTA/core = 4, limited by: threads
GPGPU-Sim uArch: Shader 2 bind to kernel 1 '_Z6KernelP4NodePiPbS2_S2_S1_i'
GPGPU-Sim uArch: Shader 3 bind to kernel 1 '_Z6KernelP4NodePiPbS2_S2_S1_i'
GPGPU-Sim uArch: Shader 4 bind to kernel 1 '_Z6KernelP4NodePiPbS2_S2_S1_i'
GPGPU-Sim uArch: Shader 5 bind to kernel 1 '_Z6KernelP4NodePiPbS2_S2_S1_i'
GPGPU-Sim uArch: Shader 6 bind to kernel 1 '_Z6KernelP4NodePiPbS2_S2_S1_i'
GPGPU-Sim uArch: Shader 7 bind to kernel 1 '_Z6KernelP4NodePiPbS2_S2_S1_i'
GPGPU-Sim uArch: Shader 8 bind to kernel 1 '_Z6KernelP4NodePiPbS2_S2_S1_i'
GPGPU-Sim uArch: Shader 9 bind to kernel 1 '_Z6KernelP4NodePiPbS2_S2_S1_i'
GPGPU-Sim uArch: Shader 10 bind to kernel 1 '_Z6KernelP4NodePiPbS2_S2_S1_i'
GPGPU-Sim uArch: Shader 11 bind to kernel 1 '_Z6KernelP4NodePiPbS2_S2_S1_i'
GPGPU-Sim uArch: Shader 12 bind to kernel 1 '_Z6KernelP4NodePiPbS2_S2_S1_i'
GPGPU-Sim uArch: Shader 13 bind to kernel 1 '_Z6KernelP4NodePiPbS2_S2_S1_i'
GPGPU-Sim uArch: Shader 14 bind to kernel 1 '_Z6KernelP4NodePiPbS2_S2_S1_i'
GPGPU-Sim uArch: Shader 15 bind to kernel 1 '_Z6KernelP4NodePiPbS2_S2_S1_i'
GPGPU-Sim uArch: Shader 16 bind to kernel 1 '_Z6KernelP4NodePiPbS2_S2_S1_i'
GPGPU-Sim uArch: Shader 17 bind to kernel 1 '_Z6KernelP4NodePiPbS2_S2_S1_i'
GPGPU-Sim uArch: Shader 18 bind to kernel 1 '_Z6KernelP4NodePiPbS2_S2_S1_i'
GPGPU-Sim uArch: Shader 19 bind to kernel 1 '_Z6KernelP4NodePiPbS2_S2_S1_i'
GPGPU-Sim uArch: Shader 20 bind to kernel 1 '_Z6KernelP4NodePiPbS2_S2_S1_i'
GPGPU-Sim uArch: Shader 21 bind to kernel 1 '_Z6KernelP4NodePiPbS2_S2_S1_i'
GPGPU-Sim uArch: Shader 22 bind to kernel 1 '_Z6KernelP4NodePiPbS2_S2_S1_i'
GPGPU-Sim uArch: Shader 23 bind to kernel 1 '_Z6KernelP4NodePiPbS2_S2_S1_i'
GPGPU-Sim uArch: Shader 24 bind to kernel 1 '_Z6KernelP4NodePiPbS2_S2_S1_i'
GPGPU-Sim uArch: Shader 25 bind to kernel 1 '_Z6KernelP4NodePiPbS2_S2_S1_i'
GPGPU-Sim uArch: Shader 26 bind to kernel 1 '_Z6KernelP4NodePiPbS2_S2_S1_i'
GPGPU-Sim uArch: Shader 27 bind to kernel 1 '_Z6KernelP4NodePiPbS2_S2_S1_i'
GPGPU-Sim uArch: Shader 0 bind to kernel 1 '_Z6KernelP4NodePiPbS2_S2_S1_i'
GPGPU-Sim uArch: Shader 26 bind to kernel 1 '_Z6KernelP4NodePiPbS2_S2_S1_i'
GPGPU-Sim uArch: Shader 27 bind to kernel 1 '_Z6KernelP4NodePiPbS2_S2_S1_i'
GPGPU-Sim uArch: Shader 0 bind to kernel 1 '_Z6KernelP4NodePiPbS2_S2_S1_i'
GPGPU-Sim uArch: Shader 1 bind to kernel 1 '_Z6KernelP4NodePiPbS2_S2_S1_i'
GPGPU-Sim uArch: Shader 2 bind to kernel 1 '_Z6KernelP4NodePiPbS2_S2_S1_i'
GPGPU-Sim uArch: Shader 3 bind to kernel 1 '_Z6KernelP4NodePiPbS2_S2_S1_i'
GPGPU-Sim uArch: Shader 4 bind to kernel 1 '_Z6KernelP4NodePiPbS2_S2_S1_i'
GPGPU-Sim uArch: Shader 5 bind to kernel 1 '_Z6KernelP4NodePiPbS2_S2_S1_i'
GPGPU-Sim uArch: Shader 6 bind to kernel 1 '_Z6KernelP4NodePiPbS2_S2_S1_i'
GPGPU-Sim uArch: Shader 7 bind to kernel 1 '_Z6KernelP4NodePiPbS2_S2_S1_i'
GPGPU-Sim uArch: Shader 8 bind to kernel 1 '_Z6KernelP4NodePiPbS2_S2_S1_i'
GPGPU-Sim uArch: Shader 9 bind to kernel 1 '_Z6KernelP4NodePiPbS2_S2_S1_i'
GPGPU-Sim uArch: Shader 10 bind to kernel 1 '_Z6KernelP4NodePiPbS2_S2_S1_i'
GPGPU-Sim uArch: Shader 11 bind to kernel 1 '_Z6KernelP4NodePiPbS2_S2_S1_i'
GPGPU-Sim uArch: Shader 12 bind to kernel 1 '_Z6KernelP4NodePiPbS2_S2_S1_i'
GPGPU-Sim uArch: Shader 13 bind to kernel 1 '_Z6KernelP4NodePiPbS2_S2_S1_i'
GPGPU-Sim uArch: Shader 14 bind to kernel 1 '_Z6KernelP4NodePiPbS2_S2_S1_i'
GPGPU-Sim uArch: Shader 15 bind to kernel 1 '_Z6KernelP4NodePiPbS2_S2_S1_i'
GPGPU-Sim uArch: Shader 16 bind to kernel 1 '_Z6KernelP4NodePiPbS2_S2_S1_i'
GPGPU-Sim uArch: Shader 17 bind to kernel 1 '_Z6KernelP4NodePiPbS2_S2_S1_i'
GPGPU-Sim uArch: Shader 18 bind to kernel 1 '_Z6KernelP4NodePiPbS2_S2_S1_i'
GPGPU-Sim uArch: Shader 19 bind to kernel 1 '_Z6KernelP4NodePiPbS2_S2_S1_i'
GPGPU-Sim uArch: Shader 20 bind to kernel 1 '_Z6KernelP4NodePiPbS2_S2_S1_i'
GPGPU-Sim uArch: Shader 21 bind to kernel 1 '_Z6KernelP4NodePiPbS2_S2_S1_i'
GPGPU-Sim uArch: Shader 22 bind to kernel 1 '_Z6KernelP4NodePiPbS2_S2_S1_i'
GPGPU-Sim uArch: Shader 23 bind to kernel 1 '_Z6KernelP4NodePiPbS2_S2_S1_i'
GPGPU-Sim uArch: Shader 24 bind to kernel 1 '_Z6KernelP4NodePiPbS2_S2_S1_i'
GPGPU-Sim uArch: Shader 25 bind to kernel 1 '_Z6KernelP4NodePiPbS2_S2_S1_i'
Destroy streams for kernel 1: size 0
kernel_name = _Z6KernelP4NodePiPbS2_S2_S1_i 
kernel_launch_uid = 1 
gpu_sim_cycle = 124142
gpu_sim_insn = 4970238
gpu_ipc =      40.0367
gpu_tot_sim_cycle = 348828
gpu_tot_sim_insn = 4970238
gpu_tot_ipc =      14.2484
gpu_tot_issued_cta = 511
max_total_param_size = 0
gpu_stall_dramfull = 0
gpu_stall_icnt2sh    = 3100
partiton_reqs_in_parallel = 2731124
partiton_reqs_in_parallel_total    = 0
partiton_level_parallism =      22.0000
partiton_level_parallism_total  =       7.8294
partiton_reqs_in_parallel_util = 2731124
partiton_reqs_in_parallel_util_total    = 0
gpu_sim_cycle_parition_util = 124142
gpu_tot_sim_cycle_parition_util    = 0
partiton_level_parallism_util =      22.0000
partiton_level_parallism_util_total  =      22.0000
partiton_replys_in_parallel = 8336
partiton_replys_in_parallel_total    = 0
L2_BW  =       6.3646 GB/Sec
L2_BW_total  =       2.2651 GB/Sec
gpu_total_sim_rate=46450

========= Core cache stats =========
L1I_cache:
	L1I_total_cache_accesses = 90013
	L1I_total_cache_misses = 2778
	L1I_total_cache_miss_rate = 0.0309
	L1I_total_cache_pending_hits = 0
	L1I_total_cache_reservation_fails = 6846
L1D_cache:
	L1D_cache_core[0]: Access = 0, Miss = 0, Miss_rate = -nan, Pending_hits = 0, Reservation_fails = 0
	L1D_cache_core[1]: Access = 0, Miss = 0, Miss_rate = -nan, Pending_hits = 0, Reservation_fails = 0
	L1D_cache_core[2]: Access = 0, Miss = 0, Miss_rate = -nan, Pending_hits = 0, Reservation_fails = 0
	L1D_cache_core[3]: Access = 0, Miss = 0, Miss_rate = -nan, Pending_hits = 0, Reservation_fails = 0
	L1D_cache_core[4]: Access = 0, Miss = 0, Miss_rate = -nan, Pending_hits = 0, Reservation_fails = 0
	L1D_cache_core[5]: Access = 0, Miss = 0, Miss_rate = -nan, Pending_hits = 0, Reservation_fails = 0
	L1D_cache_core[6]: Access = 0, Miss = 0, Miss_rate = -nan, Pending_hits = 0, Reservation_fails = 0
	L1D_cache_core[7]: Access = 0, Miss = 0, Miss_rate = -nan, Pending_hits = 0, Reservation_fails = 0
	L1D_cache_core[8]: Access = 0, Miss = 0, Miss_rate = -nan, Pending_hits = 0, Reservation_fails = 0
	L1D_cache_core[9]: Access = 0, Miss = 0, Miss_rate = -nan, Pending_hits = 0, Reservation_fails = 0
	L1D_cache_core[10]: Access = 0, Miss = 0, Miss_rate = -nan, Pending_hits = 0, Reservation_fails = 0
	L1D_cache_core[11]: Access = 0, Miss = 0, Miss_rate = -nan, Pending_hits = 0, Reservation_fails = 0
	L1D_cache_core[12]: Access = 0, Miss = 0, Miss_rate = -nan, Pending_hits = 0, Reservation_fails = 0
	L1D_cache_core[13]: Access = 0, Miss = 0, Miss_rate = -nan, Pending_hits = 0, Reservation_fails = 0
	L1D_cache_core[14]: Access = 0, Miss = 0, Miss_rate = -nan, Pending_hits = 0, Reservation_fails = 0
	L1D_cache_core[15]: Access = 0, Miss = 0, Miss_rate = -nan, Pending_hits = 0, Reservation_fails = 0
	L1D_cache_core[16]: Access = 0, Miss = 0, Miss_rate = -nan, Pending_hits = 0, Reservation_fails = 0
	L1D_cache_core[17]: Access = 0, Miss = 0, Miss_rate = -nan, Pending_hits = 0, Reservation_fails = 0
	L1D_cache_core[18]: Access = 0, Miss = 0, Miss_rate = -nan, Pending_hits = 0, Reservation_fails = 0
	L1D_cache_core[19]: Access = 0, Miss = 0, Miss_rate = -nan, Pending_hits = 0, Reservation_fails = 0
	L1D_cache_core[20]: Access = 0, Miss = 0, Miss_rate = -nan, Pending_hits = 0, Reservation_fails = 0
	L1D_cache_core[21]: Access = 0, Miss = 0, Miss_rate = -nan, Pending_hits = 0, Reservation_fails = 0
	L1D_cache_core[22]: Access = 0, Miss = 0, Miss_rate = -nan, Pending_hits = 0, Reservation_fails = 0
	L1D_cache_core[23]: Access = 0, Miss = 0, Miss_rate = -nan, Pending_hits = 0, Reservation_fails = 0
	L1D_cache_core[24]: Access = 0, Miss = 0, Miss_rate = -nan, Pending_hits = 0, Reservation_fails = 0
	L1D_cache_core[25]: Access = 0, Miss = 0, Miss_rate = -nan, Pending_hits = 0, Reservation_fails = 0
	L1D_cache_core[26]: Access = 0, Miss = 0, Miss_rate = -nan, Pending_hits = 0, Reservation_fails = 0
	L1D_cache_core[27]: Access = 0, Miss = 0, Miss_rate = -nan, Pending_hits = 0, Reservation_fails = 0
	L1D_total_cache_accesses = 0
	L1D_total_cache_misses = 0
	L1D_total_cache_pending_hits = 0
	L1D_total_cache_reservation_fails = 0
	L1D_cache_data_port_util = 0.000
	L1D_cache_fill_port_util = 0.000
L1C_cache:
	L1C_total_cache_accesses = 57232
	L1C_total_cache_misses = 1792
	L1C_total_cache_miss_rate = 0.0313
	L1C_total_cache_pending_hits = 0
	L1C_total_cache_reservation_fails = 4886
L1T_cache:
	L1T_total_cache_accesses = 0
	L1T_total_cache_misses = 0
	L1T_total_cache_pending_hits = 0
	L1T_total_cache_reservation_fails = 0

Total_core_cache_stats:
	Total_core_cache_stats_breakdown[GLOBAL_ACC_R][HIT] = 0
	Total_core_cache_stats_breakdown[GLOBAL_ACC_R][HIT_RESERVED] = 0
	Total_core_cache_stats_breakdown[GLOBAL_ACC_R][MISS] = 0
	Total_core_cache_stats_breakdown[GLOBAL_ACC_R][RESERVATION_FAIL] = 0
	Total_core_cache_stats_breakdown[LOCAL_ACC_R][HIT] = 0
	Total_core_cache_stats_breakdown[LOCAL_ACC_R][HIT_RESERVED] = 0
	Total_core_cache_stats_breakdown[LOCAL_ACC_R][MISS] = 0
	Total_core_cache_stats_breakdown[LOCAL_ACC_R][RESERVATION_FAIL] = 0
	Total_core_cache_stats_breakdown[CONST_ACC_R][HIT] = 55440
	Total_core_cache_stats_breakdown[CONST_ACC_R][HIT_RESERVED] = 0
	Total_core_cache_stats_breakdown[CONST_ACC_R][MISS] = 1792
	Total_core_cache_stats_breakdown[CONST_ACC_R][RESERVATION_FAIL] = 4886
	Total_core_cache_stats_breakdown[TEXTURE_ACC_R][HIT] = 0
	Total_core_cache_stats_breakdown[TEXTURE_ACC_R][HIT_RESERVED] = 0
	Total_core_cache_stats_breakdown[TEXTURE_ACC_R][MISS] = 0
	Total_core_cache_stats_breakdown[TEXTURE_ACC_R][RESERVATION_FAIL] = 0
	Total_core_cache_stats_breakdown[GLOBAL_ACC_W][HIT] = 0
	Total_core_cache_stats_breakdown[GLOBAL_ACC_W][HIT_RESERVED] = 0
	Total_core_cache_stats_breakdown[GLOBAL_ACC_W][MISS] = 0
	Total_core_cache_stats_breakdown[GLOBAL_ACC_W][RESERVATION_FAIL] = 0
	Total_core_cache_stats_breakdown[LOCAL_ACC_W][HIT] = 0
	Total_core_cache_stats_breakdown[LOCAL_ACC_W][HIT_RESERVED] = 0
	Total_core_cache_stats_breakdown[LOCAL_ACC_W][MISS] = 0
	Total_core_cache_stats_breakdown[LOCAL_ACC_W][RESERVATION_FAIL] = 0
	Total_core_cache_stats_breakdown[L1_WRBK_ACC][HIT] = 0
	Total_core_cache_stats_breakdown[L1_WRBK_ACC][HIT_RESERVED] = 0
	Total_core_cache_stats_breakdown[L1_WRBK_ACC][MISS] = 0
	Total_core_cache_stats_breakdown[L1_WRBK_ACC][RESERVATION_FAIL] = 0
	Total_core_cache_stats_breakdown[L2_WRBK_ACC][HIT] = 0
	Total_core_cache_stats_breakdown[L2_WRBK_ACC][HIT_RESERVED] = 0
	Total_core_cache_stats_breakdown[L2_WRBK_ACC][MISS] = 0
	Total_core_cache_stats_breakdown[L2_WRBK_ACC][RESERVATION_FAIL] = 0
	Total_core_cache_stats_breakdown[INST_ACC_R][HIT] = 87235
	Total_core_cache_stats_breakdown[INST_ACC_R][HIT_RESERVED] = 0
	Total_core_cache_stats_breakdown[INST_ACC_R][MISS] = 2778
	Total_core_cache_stats_breakdown[INST_ACC_R][RESERVATION_FAIL] = 6846
	Total_core_cache_stats_breakdown[L1_WR_ALLOC_R][HIT] = 0
	Total_core_cache_stats_breakdown[L1_WR_ALLOC_R][HIT_RESERVED] = 0
	Total_core_cache_stats_breakdown[L1_WR_ALLOC_R][MISS] = 0
	Total_core_cache_stats_breakdown[L1_WR_ALLOC_R][RESERVATION_FAIL] = 0
	Total_core_cache_stats_breakdown[L2_WR_ALLOC_R][HIT] = 0
	Total_core_cache_stats_breakdown[L2_WR_ALLOC_R][HIT_RESERVED] = 0
	Total_core_cache_stats_breakdown[L2_WR_ALLOC_R][MISS] = 0
	Total_core_cache_stats_breakdown[L2_WR_ALLOC_R][RESERVATION_FAIL] = 0
	Total_core_cache_stats_breakdown[CONST_ACC_R][TOTAL_ACCESS] = 57232
	Total_core_cache_stats_breakdown[INST_ACC_R][TOTAL_ACCESS] = 90013
Shader 0 warp_id issue ditsribution:
warp_id:
0, 1, 2, 3, 4, 5, 6, 7, 8, 9, 10, 11, 12, 13, 14, 15, 16, 17, 18, 19, 20, 21, 22, 23, 24, 25, 26, 27, 28, 29, 30, 31, 32, 33, 34, 35, 36, 37, 38, 39, 40, 41, 42, 43, 44, 45, 46, 47, 48, 49, 50, 51, 52, 53, 54, 55, 56, 57, 58, 59, 60, 61, 62, 63, 
distro:
115, 115, 114, 115, 114, 115, 114, 115, 115, 115, 115, 115, 115, 115, 115, 115, 115, 115, 115, 115, 115, 115, 115, 115, 115, 115, 115, 115, 115, 115, 115, 115, 92, 92, 92, 92, 92, 92, 92, 92, 92, 92, 92, 92, 92, 92, 92, 92, 92, 92, 92, 92, 92, 92, 92, 92, 92, 92, 92, 92, 92, 92, 92, 92, 
gpgpu_n_tot_thrd_icount = 5237440
gpgpu_n_tot_w_icount = 163670
gpgpu_n_stall_shd_mem = 5197
gpgpu_n_mem_read_local = 0
gpgpu_n_mem_write_local = 0
gpgpu_n_mem_read_global = 8208
gpgpu_n_mem_write_global = 15
gpgpu_n_mem_texture = 0
gpgpu_n_mem_const = 28
gpgpu_n_load_insn  = 261481
gpgpu_n_store_insn = 15
gpgpu_n_shmem_insn = 0
gpgpu_n_tex_insn = 0
gpgpu_n_const_mem_insn = 0
gpgpu_n_param_mem_insn = 1831424
gpgpu_n_shmem_bkconflict = 0
gpgpu_n_cache_bkconflict = 0
gpgpu_n_intrawarp_mshr_merge = 0
gpgpu_n_cmem_portconflict = 4886
gpgpu_stall_shd_mem[c_mem][bk_conf] = 4886
gpgpu_stall_shd_mem[c_mem][mshr_rc] = 0
gpgpu_stall_shd_mem[c_mem][icnt_rc] = 0
gpgpu_stall_shd_mem[c_mem][data_port_stall] = 0
gpgpu_stall_shd_mem[t_mem][mshr_rc] = 0
gpgpu_stall_shd_mem[t_mem][icnt_rc] = 0
gpgpu_stall_shd_mem[t_mem][data_port_stall] = 0
gpgpu_stall_shd_mem[s_mem][bk_conf] = 0
gpgpu_stall_shd_mem[gl_mem][bk_conf] = 0
gpgpu_stall_shd_mem[gl_mem][coal_stall] = 0
gpgpu_stall_shd_mem[gl_mem][data_port_stall] = 0
gpgpu_stall_shd_mem[g_mem_ld][mshr_rc] = 0
gpgpu_stall_shd_mem[g_mem_ld][icnt_rc] = 311
gpgpu_stall_shd_mem[g_mem_ld][wb_icnt_rc] = 0
gpgpu_stall_shd_mem[g_mem_ld][wb_rsrv_fail] = 0
gpgpu_stall_shd_mem[g_mem_st][mshr_rc] = 0
gpgpu_stall_shd_mem[g_mem_st][icnt_rc] = 0
gpgpu_stall_shd_mem[g_mem_st][wb_icnt_rc] = 0
gpgpu_stall_shd_mem[g_mem_st][wb_rsrv_fail] = 0
gpgpu_stall_shd_mem[l_mem_ld][mshr_rc] = 0
gpgpu_stall_shd_mem[l_mem_ld][icnt_rc] = 0
gpgpu_stall_shd_mem[l_mem_ld][wb_icnt_rc] = 0
gpgpu_stall_shd_mem[l_mem_ld][wb_rsrv_fail] = 0
gpgpu_stall_shd_mem[l_mem_st][mshr_rc] = 0
gpgpu_stall_shd_mem[l_mem_st][icnt_rc] = 0
gpgpu_stall_shd_mem[l_mem_ld][wb_icnt_rc] = 0
gpgpu_stall_shd_mem[l_mem_ld][wb_rsrv_fail] = 0
gpu_reg_bank_conflict_stalls = 0
Warp Occupancy Distribution:
Stall:33196	W0_Idle:4973576	W0_Scoreboard:1799498	W1:180	W2:0	W3:0	W4:6	W5:0	W6:0	W7:0	W8:0	W9:0	W10:0	W11:0	W12:0	W13:0	W14:0	W15:0	W16:0	W17:0	W18:0	W19:0	W20:0	W21:0	W22:0	W23:0	W24:0	W25:0	W26:0	W27:0	W28:0	W29:0	W30:0	W31:0	W32:163484
traffic_breakdown_coretomem[CONST_ACC_R] = 224 {8:28,}
traffic_breakdown_coretomem[GLOBAL_ACC_R] = 65664 {8:8208,}
traffic_breakdown_coretomem[GLOBAL_ACC_W] = 600 {40:15,}
traffic_breakdown_coretomem[INST_ACC_R] = 680 {8:85,}
traffic_breakdown_memtocore[CONST_ACC_R] = 2016 {72:28,}
traffic_breakdown_memtocore[GLOBAL_ACC_R] = 328320 {40:8208,}
traffic_breakdown_memtocore[GLOBAL_ACC_W] = 120 {8:15,}
traffic_breakdown_memtocore[INST_ACC_R] = 11560 {136:85,}
maxmrqlatency = 68 
maxdqlatency = 0 
maxmflatency = 48749 
averagemflatency = 3479 
max_icnt2mem_latency = 48508 
max_icnt2sh_latency = 338078 
mrq_lat_table:1134 	178 	169 	230 	224 	145 	4 	0 	0 	0 	0 	0 	0 	0 	0 	0 	0 	0 	0 	0 	0 	0 	0 	0 	0 	0 	0 	0 	0 	0 	0 	0 	
dq_lat_table:0 	0 	0 	0 	0 	0 	0 	0 	0 	0 	0 	0 	0 	0 	0 	0 	0 	0 	0 	0 	0 	0 	0 	0 	0 	0 	0 	0 	0 	0 	0 	0 	
mf_lat_table:0 	0 	0 	0 	0 	0 	0 	2344 	3086 	1 	0 	772 	4 	1795 	245 	4 	0 	0 	0 	0 	0 	0 	0 	0 	0 	0 	0 	0 	0 	0 	0 	0 	
icnt2mem_lat_table:0 	0 	2467 	54 	24 	0 	2970 	0 	1 	0 	0 	772 	5 	1794 	245 	4 	0 	0 	0 	0 	0 	0 	0 	0 	
icnt2sh_lat_table:0 	0 	4129 	3171 	931 	5 	0 	0 	0 	0 	0 	0 	0 	0 	0 	0 	0 	2 	13 	0 	0 	0 	0 	0 	
mf_lat_pw_table:0 	0 	0 	0 	0 	0 	0 	9 	5 	1 	0 	5 	1 	4 	4 	4 	0 	0 	0 	0 	0 	0 	0 	0 	0 	0 	0 	0 	0 	0 	0 	0 	
maximum concurrent accesses to same row:
dram[0]:         1         0         0         0         0         0         0         0         0        10         0         0        16         0         0         0 
dram[1]:         0         0         0         0         0         1         0         0         0         0        11         0         0         0         0         9 
dram[2]:         0         0         1         0         0         0         0         0         0        10         0         0         0         0         0         0 
dram[3]:         0         0         1         0         0         0         0         0         0         0         0        16         0         0         0         0 
dram[4]:         1         0         0         0         0         0         0         0         0         0         0         0         0         0         1         1 
dram[5]:         0         0         0         0         0         0         0         0         0         0         0         0         0         0         1         1 
dram[6]:         0         0         0         0         0         0         0         0         0         0         0         0        16         0         0         0 
dram[7]:         0         0         1         0         0         0         0         0         0         0         0         0         0         0         0         0 
dram[8]:         0         0         0         0         2         0         0         0         0         0         0         0         0         0         0         0 
dram[9]:         0         0         1         0         0         0         0         0         0         0         0         0         0         0         0         0 
dram[10]:         0         0         0         0         0         0         0         0        11         0         0         0        16         0         0         0 
maximum service time to same row:
dram[0]:     99789    122918    123377    123380    123941    123940         0         0      4581    108795     11447     11452     33828     22892     23587     23590 
dram[1]:    122878    122919    123384    123395    123923     64439     53430         0      4580      4581     11455     11459     22888     22896     23565     55694 
dram[2]:    122877    122918     96898    123391    123930    123930         0         0      4580     40609     11447     11452     22888     22892     23572     23590 
dram[3]:    122878    122918     99721    123388     54164    123961         0         0      4580      4584     11455     58940     22889     22895     23593     23631 
dram[4]:     69248    122918    123365    123369    123924    123930         0         0      4580      4584     11447     11452     22888     22891     23386     22829 
dram[5]:    122878    122918    123393    123391    123925    123962         0         0      4580      4584     11455     11459     22889     22894     11935     18778 
dram[6]:    122878    122918    123391    123394    123916    123923     57450         0      4580      4584     11447     11452     41349     22894     23600     23604 
dram[7]:    122879    122918     66483    123412    123921    123951         0         0      4580      4584     11455     11459     22889     22892     23593     23595 
dram[8]:    122878    122918    123375    123380     90735    123930     53432         0      4580      4584     11475     11479     22888     22898     23597     23600 
dram[9]:    122878    122918     81039    123428    123934    123937         0         0      4580      4584     11470     11473     22889     22894     23588     23591 
dram[10]:    122878    122918    123418    123422     44990    123937         0         0     96335      4582     11468     11472     41352     22897     23593     23595 
average row accesses per activate:
dram[0]:  9.000000 16.000000 16.000000 16.000000  3.000000  3.000000      -nan      -nan 10.000000  6.000000 16.000000 16.000000  9.000000 16.000000 16.000000 16.000000 
dram[1]: 16.000000 16.000000 16.000000 16.000000  3.000000  2.000000  2.000000      -nan 10.000000 10.000000  3.600000 16.000000 16.000000 16.000000 16.000000  6.000000 
dram[2]: 16.000000 16.000000  8.500000 16.000000  3.000000  3.000000      -nan      -nan 10.000000  5.500000 16.000000 16.000000 16.000000 16.000000 16.000000 16.000000 
dram[3]: 16.000000 16.000000  8.500000 16.000000  5.000000  3.000000      -nan      -nan 10.000000 10.000000 16.000000  9.000000 16.000000 16.000000 16.000000 16.000000 
dram[4]:  8.500000 16.000000 16.000000 16.000000  3.000000  3.000000      -nan      -nan 10.000000 10.000000 16.000000 16.000000 16.000000 16.000000  8.500000  8.500000 
dram[5]: 16.000000 16.000000 16.000000 16.000000  3.000000  3.000000      -nan      -nan 10.000000 10.000000 16.000000 16.000000 16.000000 16.000000  8.500000  8.500000 
dram[6]: 16.000000 16.000000 16.000000 16.000000  3.000000  3.000000  2.000000      -nan 10.000000 10.000000 16.000000 16.000000  9.000000 16.000000 16.000000 16.000000 
dram[7]: 16.000000 16.000000  8.500000 16.000000  3.000000  2.000000      -nan      -nan 10.000000 10.000000 16.000000 16.000000 16.000000 16.000000 16.000000 16.000000 
dram[8]: 16.000000 16.000000 16.000000 16.000000  2.000000  2.000000  2.000000      -nan 10.000000 10.000000 16.000000 16.000000 16.000000 16.000000 16.000000 16.000000 
dram[9]: 16.000000 16.000000  8.500000 16.000000  2.000000  2.000000      -nan      -nan 11.000000 11.000000 16.000000 16.000000 16.000000 16.000000 16.000000 16.000000 
dram[10]: 16.000000 16.000000 16.000000 16.000000  4.000000  2.000000      -nan      -nan  6.500000 11.000000 16.000000 16.000000  9.000000 16.000000 16.000000 16.000000 
average row locality = 2084/182 = 11.450549
number of total memory accesses made:
dram[0]:         0         0         0         0         0         0         0         0         0         0         0         0         0         0         0         0 
dram[1]:         0         0         0         0         0         0         0         0         0         0         0         0         0         0         0         0 
dram[2]:         0         0         0         0         0         0         0         0         0         0         0         0         0         0         0         0 
dram[3]:         0         0         0         0         0         0         0         0         0         0         0         0         0         0         0         0 
dram[4]:         0         0         0         0         0         0         0         0         0         0         0         0         0         0         0         0 
dram[5]:         0         0         0         0         0         0         0         0         0         0         0         0         0         0         0         0 
dram[6]:         0         0         0         0         0         0         0         0         0         0         0         0         0         0         0         0 
dram[7]:         0         0         0         0         0         0         0         0         0         0         0         0         0         0         0         0 
dram[8]:         0         0         0         0         0         0         0         0         0         0         0         0         0         0         0         0 
dram[9]:         0         0         0         0         0         0         0         0         0         0         0         0         0         0         0         0 
dram[10]:         0         0         0         0         0         0         0         0         0         0         0         0         0         0         0         0 
total accesses: 0
min_bank_accesses = 0!
min_chip_accesses = 0!
number of total read accesses:
dram[0]:        18        16        16        16         3         3         0         0        10        11        16        16        17        16        16        16 
dram[1]:        16        16        16        16         3         4         1         0        10        10        18        16        16        16        16        17 
dram[2]:        16        16        17        16         3         3         0         0        10        11        16        16        16        16        16        16 
dram[3]:        16        16        17        16         4         3         0         0        10        10        16        17        16        16        16        16 
dram[4]:        17        16        16        16         3         3         0         0        10        10        16        16        16        16        17        17 
dram[5]:        16        16        16        16         3         3         0         0        10        10        16        16        16        16        17        17 
dram[6]:        16        16        16        16         3         3         1         0        10        10        16        16        17        16        16        16 
dram[7]:        16        16        17        16         3         2         0         0        10        10        16        16        16        16        16        16 
dram[8]:        16        16        16        16         3         2         1         0        10        10        16        16        16        16        16        16 
dram[9]:        16        16        17        16         2         2         0         0        11        11        16        16        16        16        16        16 
dram[10]:        16        16        16        16         3         2         0         0        12        11        16        16        17        16        16        16 
total reads: 2071
min_bank_accesses = 0!
chip skew: 191/186 = 1.03
number of total write accesses:
dram[0]:         0         0         0         0         0         0         0         0         0         1         0         0         1         0         0         0 
dram[1]:         0         0         0         0         0         0         1         0         0         0         0         0         0         0         0         1 
dram[2]:         0         0         0         0         0         0         0         0         0         0         0         0         0         0         0         0 
dram[3]:         0         0         0         0         1         0         0         0         0         0         0         1         0         0         0         0 
dram[4]:         0         0         0         0         0         0         0         0         0         0         0         0         0         0         0         0 
dram[5]:         0         0         0         0         0         0         0         0         0         0         0         0         0         0         0         0 
dram[6]:         0         0         0         0         0         0         1         0         0         0         0         0         1         0         0         0 
dram[7]:         0         0         0         0         0         0         0         0         0         0         0         0         0         0         0         0 
dram[8]:         0         0         0         0         1         0         1         0         0         0         0         0         0         0         0         0 
dram[9]:         0         0         0         0         0         0         0         0         0         0         0         0         0         0         0         0 
dram[10]:         0         0         0         0         1         0         0         0         1         0         0         0         1         0         0         0 
total reads: 13
min_bank_accesses = 0!
min_chip_accesses = 0!
average mf latency per bank:
dram[0]:       1785      1040      1147      1148      1261      1187    none      none       25935     25700     32800     32838     14750     14718     15687     15652
dram[1]:       1061      1038      1150      1124      1127      2630     13373    none       25930     26005     30391     33445     14724     14722     15668     15794
dram[2]:       1072      1039      1230      1121      1278      1249    none      none       25928     23829     30815     30828     14728     14694     15657     15642
dram[3]:       1056      1041      1163      1106       735      1111    none      none       25939     25987     30796     28790     14706     14685     15661     15650
dram[4]:       1460      1019      1122      1085      1152      1045    none      none       25920     25971     30798     30821     12026     12014     15380     15361
dram[5]:       1054      1038      1153      1112      1137      1100    none      none       25917     25979     30787     30822     12011     12012     15378     15381
dram[6]:       1058      1025      1130      1070      1176      1160       170    none       25901     25970     32884     32919     11880     11992     11686     11670
dram[7]:       1053      1037      1212      1058      1093      1197    none      none       28645     28708     32897     32931     11985     12002     11676     11648
dram[8]:       1056      1046      1171      1137      9838      1213      5427    none       28665     28754     32923     32948     12024     12045     11705     11684
dram[9]:       1047      1031      2013      1129      1258      1206    none      none       27488     27531     32904     32923     12010     11999     15672     15656
dram[10]:       1049      1030      1172      1125      5942      1250    none      none       26006     27509     32904     32934     11087     12030     15694     15666
maximum mf latency per bank:
dram[0]:       8423       367       359       375       382       377         0         0     10608     48749     11335     11235     30053     11177     18834     18826
dram[1]:        364       359       378       377       368      7018     26747         0     10616     10630     11401     11353     11160     11176     18827     33875
dram[2]:        359       368      2468       373       363       383         0         0     10607     10620     11325     11222     11207     11216     18835     18844
dram[3]:        356       357       553       378       349       347         0         0     10612     10627     11182     25029     11178     11188     18835     18842
dram[4]:       7929       358       363       378       355       354         0         0     10603     10616     11182     11182     11178     11182     18844     18849
dram[5]:        364       360       360       370       353       352         0         0     10607     10623     11203     11187     11154     11167     18846     18876
dram[6]:        360       368       366       368       366       374       341         0     10601     10618     11386     11367     21680     11168     18841     18841
dram[7]:        364       360      2782       361       364       363         0         0     10616     10646     11364     11225     11166     11178     18849     18821
dram[8]:        360       368       368       373     36926       372     10854         0     10633     10673     11387     11372     11165     11166     18831     18836
dram[9]:        363       364     15391       369       366       373         0         0     10643     10643     11364     11248     11171     11180     18829     18833
dram[10]:        364       357       358       369     21279       385         0         0     36304     10662     11389     11373     11161     11178     18843     18832
Memory Partition 0: 
Cache L2_bank_000:
MSHR contents

Cache L2_bank_001:
MSHR contents

In Dram Latency Queue (total = 0): 
DRAM[0]: 16 bks, busW=4 BL=8 CL=12, tRRD=2 tCCD=6, tRCD=12 tRAS=28 tRP=12 tRC=40
n_cmd=230512 n_nop=229728 n_act=18 n_pre=4 n_req=192 n_rd=760 n_write=2 bw_util=0.006611
n_activity=2148 dram_eff=0.7095
bk0: 72a 230308i bk1: 64a 230352i bk2: 64a 230365i bk3: 64a 230285i bk4: 12a 230446i bk5: 12a 230439i bk6: 0a 230511i bk7: 0a 230515i bk8: 40a 230417i bk9: 44a 230318i bk10: 64a 230320i bk11: 64a 230243i bk12: 68a 230324i bk13: 64a 230276i bk14: 64a 230355i bk15: 64a 230311i 
dram_util_bins: 0 0 0 0 0 0 0 0 0 0
dram_eff_bins: 0 0 0 0 0 0 0 0 0 0
mrqq: max=13 avg=0.0128236
Memory Partition 1: 
Cache L2_bank_002:
MSHR contents

Cache L2_bank_003:
MSHR contents

In Dram Latency Queue (total = 0): 
DRAM[1]: 16 bks, busW=4 BL=8 CL=12, tRRD=2 tCCD=6, tRCD=12 tRAS=28 tRP=12 tRC=40
n_cmd=230512 n_nop=229717 n_act=22 n_pre=7 n_req=193 n_rd=764 n_write=2 bw_util=0.006646
n_activity=2297 dram_eff=0.667
bk0: 64a 230367i bk1: 64a 230344i bk2: 64a 230352i bk3: 64a 230294i bk4: 12a 230449i bk5: 16a 230427i bk6: 4a 230484i bk7: 0a 230510i bk8: 40a 230422i bk9: 40a 230355i bk10: 72a 230220i bk11: 64a 230244i bk12: 64a 230353i bk13: 64a 230290i bk14: 64a 230382i bk15: 68a 230268i 
dram_util_bins: 0 0 0 0 0 0 0 0 0 0
dram_eff_bins: 0 0 0 0 0 0 0 0 0 0
mrqq: max=11 avg=0.0120297
Memory Partition 2: 
Cache L2_bank_004:
MSHR contents

Cache L2_bank_005:
MSHR contents

In Dram Latency Queue (total = 0): 
DRAM[2]: 16 bks, busW=4 BL=8 CL=12, tRRD=2 tCCD=6, tRCD=12 tRAS=28 tRP=12 tRC=40
n_cmd=230512 n_nop=229742 n_act=16 n_pre=2 n_req=188 n_rd=752 n_write=0 bw_util=0.006525
n_activity=2118 dram_eff=0.7101
bk0: 64a 230374i bk1: 64a 230353i bk2: 68a 230334i bk3: 64a 230277i bk4: 12a 230463i bk5: 12a 230447i bk6: 0a 230510i bk7: 0a 230511i bk8: 40a 230420i bk9: 44a 230318i bk10: 64a 230314i bk11: 64a 230250i bk12: 64a 230361i bk13: 64a 230291i bk14: 64a 230375i bk15: 64a 230309i 
dram_util_bins: 0 0 0 0 0 0 0 0 0 0
dram_eff_bins: 0 0 0 0 0 0 0 0 0 0
mrqq: max=10 avg=0.0105895
Memory Partition 3: 
Cache L2_bank_006:
MSHR contents

Cache L2_bank_007:
MSHR contents

In Dram Latency Queue (total = 0): 
DRAM[3]: 16 bks, busW=4 BL=8 CL=12, tRRD=2 tCCD=6, tRCD=12 tRAS=28 tRP=12 tRC=40
n_cmd=230512 n_nop=229736 n_act=16 n_pre=2 n_req=191 n_rd=756 n_write=2 bw_util=0.006577
n_activity=2144 dram_eff=0.7071
bk0: 64a 230364i bk1: 64a 230362i bk2: 68a 230328i bk3: 64a 230300i bk4: 16a 230456i bk5: 12a 230477i bk6: 0a 230510i bk7: 0a 230512i bk8: 40a 230421i bk9: 40a 230355i bk10: 64a 230349i bk11: 68a 230214i bk12: 64a 230368i bk13: 64a 230287i bk14: 64a 230356i bk15: 64a 230315i 
dram_util_bins: 0 0 0 0 0 0 0 0 0 0
dram_eff_bins: 0 0 0 0 0 0 0 0 0 0
mrqq: max=10 avg=0.0101817
Memory Partition 4: 
Cache L2_bank_008:
MSHR contents

Cache L2_bank_009:
MSHR contents

In Dram Latency Queue (total = 0): 
DRAM[4]: 16 bks, busW=4 BL=8 CL=12, tRRD=2 tCCD=6, tRCD=12 tRAS=28 tRP=12 tRC=40
n_cmd=230512 n_nop=229736 n_act=17 n_pre=3 n_req=189 n_rd=756 n_write=0 bw_util=0.006559
n_activity=2109 dram_eff=0.7169
bk0: 68a 230339i bk1: 64a 230345i bk2: 64a 230350i bk3: 64a 230277i bk4: 12a 230476i bk5: 12a 230471i bk6: 0a 230513i bk7: 0a 230513i bk8: 40a 230422i bk9: 40a 230357i bk10: 64a 230322i bk11: 64a 230230i bk12: 64a 230355i bk13: 64a 230278i bk14: 68a 230324i bk15: 68a 230248i 
dram_util_bins: 0 0 0 0 0 0 0 0 0 0
dram_eff_bins: 0 0 0 0 0 0 0 0 0 0
mrqq: max=10 avg=0.0114441
Memory Partition 5: 
Cache L2_bank_010:
MSHR contents

Cache L2_bank_011:
MSHR contents

In Dram Latency Queue (total = 0): 
DRAM[5]: 16 bks, busW=4 BL=8 CL=12, tRRD=2 tCCD=6, tRCD=12 tRAS=28 tRP=12 tRC=40
n_cmd=230512 n_nop=229742 n_act=16 n_pre=2 n_req=188 n_rd=752 n_write=0 bw_util=0.006525
n_activity=2058 dram_eff=0.7308
bk0: 64a 230365i bk1: 64a 230350i bk2: 64a 230361i bk3: 64a 230271i bk4: 12a 230465i bk5: 12a 230478i bk6: 0a 230512i bk7: 0a 230513i bk8: 40a 230423i bk9: 40a 230355i bk10: 64a 230346i bk11: 64a 230253i bk12: 64a 230375i bk13: 64a 230291i bk14: 68a 230346i bk15: 68a 230259i 
dram_util_bins: 0 0 0 0 0 0 0 0 0 0
dram_eff_bins: 0 0 0 0 0 0 0 0 0 0
mrqq: max=9 avg=0.0101253
Memory Partition 6: 
Cache L2_bank_012:
MSHR contents

Cache L2_bank_013:
MSHR contents

In Dram Latency Queue (total = 0): 
DRAM[6]: 16 bks, busW=4 BL=8 CL=12, tRRD=2 tCCD=6, tRCD=12 tRAS=28 tRP=12 tRC=40
n_cmd=230512 n_nop=229741 n_act=16 n_pre=1 n_req=190 n_rd=752 n_write=2 bw_util=0.006542
n_activity=2061 dram_eff=0.7317
bk0: 64a 230362i bk1: 64a 230350i bk2: 64a 230385i bk3: 64a 230324i bk4: 12a 230453i bk5: 12a 230456i bk6: 4a 230488i bk7: 0a 230512i bk8: 40a 230421i bk9: 40a 230356i bk10: 64a 230329i bk11: 64a 230242i bk12: 68a 230316i bk13: 64a 230278i bk14: 64a 230369i bk15: 64a 230285i 
dram_util_bins: 0 0 0 0 0 0 0 0 0 0
dram_eff_bins: 0 0 0 0 0 0 0 0 0 0
mrqq: max=11 avg=0.0111664
Memory Partition 7: 
Cache L2_bank_014:
MSHR contents

Cache L2_bank_015:
MSHR contents

In Dram Latency Queue (total = 0): 
DRAM[7]: 16 bks, busW=4 BL=8 CL=12, tRRD=2 tCCD=6, tRCD=12 tRAS=28 tRP=12 tRC=40
n_cmd=230512 n_nop=229752 n_act=15 n_pre=1 n_req=186 n_rd=744 n_write=0 bw_util=0.006455
n_activity=2044 dram_eff=0.728
bk0: 64a 230370i bk1: 64a 230351i bk2: 68a 230344i bk3: 64a 230326i bk4: 12a 230478i bk5: 8a 230485i bk6: 0a 230511i bk7: 0a 230512i bk8: 40a 230420i bk9: 40a 230349i bk10: 64a 230319i bk11: 64a 230248i bk12: 64a 230360i bk13: 64a 230273i bk14: 64a 230360i bk15: 64a 230310i 
dram_util_bins: 0 0 0 0 0 0 0 0 0 0
dram_eff_bins: 0 0 0 0 0 0 0 0 0 0
mrqq: max=12 avg=0.0107717
Memory Partition 8: 
Cache L2_bank_016:
MSHR contents

Cache L2_bank_017:
MSHR contents

In Dram Latency Queue (total = 0): 
DRAM[8]: 16 bks, busW=4 BL=8 CL=12, tRRD=2 tCCD=6, tRCD=12 tRAS=28 tRP=12 tRC=40
n_cmd=230512 n_nop=229749 n_act=16 n_pre=1 n_req=188 n_rd=744 n_write=2 bw_util=0.006473
n_activity=2039 dram_eff=0.7317
bk0: 64a 230361i bk1: 64a 230339i bk2: 64a 230354i bk3: 64a 230278i bk4: 12a 230441i bk5: 8a 230462i bk6: 4a 230485i bk7: 0a 230511i bk8: 40a 230420i bk9: 40a 230351i bk10: 64a 230366i bk11: 64a 230280i bk12: 64a 230358i bk13: 64a 230291i bk14: 64a 230362i bk15: 64a 230292i 
dram_util_bins: 0 0 0 0 0 0 0 0 0 0
dram_eff_bins: 0 0 0 0 0 0 0 0 0 0
mrqq: max=12 avg=0.0116567
Memory Partition 9: 
Cache L2_bank_018:
MSHR contents

Cache L2_bank_019:
MSHR contents

In Dram Latency Queue (total = 0): 
DRAM[9]: 16 bks, busW=4 BL=8 CL=12, tRRD=2 tCCD=6, tRCD=12 tRAS=28 tRP=12 tRC=40
n_cmd=230512 n_nop=229748 n_act=15 n_pre=1 n_req=187 n_rd=748 n_write=0 bw_util=0.00649
n_activity=1995 dram_eff=0.7499
bk0: 64a 230368i bk1: 64a 230344i bk2: 68a 230322i bk3: 64a 230324i bk4: 8a 230464i bk5: 8a 230461i bk6: 0a 230512i bk7: 0a 230512i bk8: 44a 230405i bk9: 44a 230338i bk10: 64a 230357i bk11: 64a 230267i bk12: 64a 230358i bk13: 64a 230282i bk14: 64a 230354i bk15: 64a 230303i 
dram_util_bins: 0 0 0 0 0 0 0 0 0 0
dram_eff_bins: 0 0 0 0 0 0 0 0 0 0
mrqq: max=10 avg=0.0110363
Memory Partition 10: 
Cache L2_bank_020:
MSHR contents

Cache L2_bank_021:
MSHR contents

In Dram Latency Queue (total = 0): 
DRAM[10]: 16 bks, busW=4 BL=8 CL=12, tRRD=2 tCCD=6, tRCD=12 tRAS=28 tRP=12 tRC=40
n_cmd=230512 n_nop=229735 n_act=16 n_pre=2 n_req=192 n_rd=756 n_write=3 bw_util=0.006585
n_activity=2159 dram_eff=0.7031
bk0: 64a 230360i bk1: 64a 230348i bk2: 64a 230378i bk3: 64a 230302i bk4: 12a 230441i bk5: 8a 230445i bk6: 0a 230513i bk7: 0a 230514i bk8: 48a 230371i bk9: 44a 230335i bk10: 64a 230353i bk11: 64a 230263i bk12: 68a 230310i bk13: 64a 230274i bk14: 64a 230327i bk15: 64a 230274i 
dram_util_bins: 0 0 0 0 0 0 0 0 0 0
dram_eff_bins: 0 0 0 0 0 0 0 0 0 0
mrqq: max=9 avg=0.0116089

========= L2 cache stats =========
L2_cache_bank[0]: Access = 402, Miss = 96, Miss_rate = 0.239, Pending_hits = 295, Reservation_fails = 0
L2_cache_bank[1]: Access = 373, Miss = 94, Miss_rate = 0.252, Pending_hits = 264, Reservation_fails = 0
L2_cache_bank[2]: Access = 396, Miss = 96, Miss_rate = 0.242, Pending_hits = 266, Reservation_fails = 0
L2_cache_bank[3]: Access = 374, Miss = 95, Miss_rate = 0.254, Pending_hits = 261, Reservation_fails = 0
L2_cache_bank[4]: Access = 373, Miss = 94, Miss_rate = 0.252, Pending_hits = 273, Reservation_fails = 0
L2_cache_bank[5]: Access = 373, Miss = 94, Miss_rate = 0.252, Pending_hits = 269, Reservation_fails = 0
L2_cache_bank[6]: Access = 381, Miss = 95, Miss_rate = 0.249, Pending_hits = 267, Reservation_fails = 0
L2_cache_bank[7]: Access = 373, Miss = 94, Miss_rate = 0.252, Pending_hits = 262, Reservation_fails = 0
L2_cache_bank[8]: Access = 401, Miss = 95, Miss_rate = 0.237, Pending_hits = 295, Reservation_fails = 0
L2_cache_bank[9]: Access = 400, Miss = 94, Miss_rate = 0.235, Pending_hits = 289, Reservation_fails = 0
L2_cache_bank[10]: Access = 373, Miss = 94, Miss_rate = 0.252, Pending_hits = 265, Reservation_fails = 0
L2_cache_bank[11]: Access = 400, Miss = 94, Miss_rate = 0.235, Pending_hits = 286, Reservation_fails = 0
L2_cache_bank[12]: Access = 374, Miss = 95, Miss_rate = 0.254, Pending_hits = 269, Reservation_fails = 0
L2_cache_bank[13]: Access = 372, Miss = 93, Miss_rate = 0.250, Pending_hits = 264, Reservation_fails = 0
L2_cache_bank[14]: Access = 372, Miss = 94, Miss_rate = 0.253, Pending_hits = 263, Reservation_fails = 0
L2_cache_bank[15]: Access = 368, Miss = 92, Miss_rate = 0.250, Pending_hits = 255, Reservation_fails = 0
L2_cache_bank[16]: Access = 370, Miss = 94, Miss_rate = 0.254, Pending_hits = 269, Reservation_fails = 0
L2_cache_bank[17]: Access = 368, Miss = 92, Miss_rate = 0.250, Pending_hits = 269, Reservation_fails = 0
L2_cache_bank[18]: Access = 374, Miss = 94, Miss_rate = 0.251, Pending_hits = 268, Reservation_fails = 0
L2_cache_bank[19]: Access = 372, Miss = 93, Miss_rate = 0.250, Pending_hits = 266, Reservation_fails = 0
L2_cache_bank[20]: Access = 375, Miss = 96, Miss_rate = 0.256, Pending_hits = 269, Reservation_fails = 0
L2_cache_bank[21]: Access = 372, Miss = 93, Miss_rate = 0.250, Pending_hits = 268, Reservation_fails = 0
L2_total_cache_accesses = 8336
L2_total_cache_misses = 2071
L2_total_cache_miss_rate = 0.2484
L2_total_cache_pending_hits = 5952
L2_total_cache_reservation_fails = 0
L2_total_cache_breakdown:
	L2_cache_stats_breakdown[GLOBAL_ACC_R][HIT] = 311
	L2_cache_stats_breakdown[GLOBAL_ACC_R][HIT_RESERVED] = 5844
	L2_cache_stats_breakdown[GLOBAL_ACC_R][MISS] = 2053
	L2_cache_stats_breakdown[GLOBAL_ACC_R][RESERVATION_FAIL] = 0
	L2_cache_stats_breakdown[LOCAL_ACC_R][HIT] = 0
	L2_cache_stats_breakdown[LOCAL_ACC_R][HIT_RESERVED] = 0
	L2_cache_stats_breakdown[LOCAL_ACC_R][MISS] = 0
	L2_cache_stats_breakdown[LOCAL_ACC_R][RESERVATION_FAIL] = 0
	L2_cache_stats_breakdown[CONST_ACC_R][HIT] = 0
	L2_cache_stats_breakdown[CONST_ACC_R][HIT_RESERVED] = 27
	L2_cache_stats_breakdown[CONST_ACC_R][MISS] = 1
	L2_cache_stats_breakdown[CONST_ACC_R][RESERVATION_FAIL] = 0
	L2_cache_stats_breakdown[TEXTURE_ACC_R][HIT] = 0
	L2_cache_stats_breakdown[TEXTURE_ACC_R][HIT_RESERVED] = 0
	L2_cache_stats_breakdown[TEXTURE_ACC_R][MISS] = 0
	L2_cache_stats_breakdown[TEXTURE_ACC_R][RESERVATION_FAIL] = 0
	L2_cache_stats_breakdown[GLOBAL_ACC_W][HIT] = 2
	L2_cache_stats_breakdown[GLOBAL_ACC_W][HIT_RESERVED] = 0
	L2_cache_stats_breakdown[GLOBAL_ACC_W][MISS] = 13
	L2_cache_stats_breakdown[GLOBAL_ACC_W][RESERVATION_FAIL] = 0
	L2_cache_stats_breakdown[LOCAL_ACC_W][HIT] = 0
	L2_cache_stats_breakdown[LOCAL_ACC_W][HIT_RESERVED] = 0
	L2_cache_stats_breakdown[LOCAL_ACC_W][MISS] = 0
	L2_cache_stats_breakdown[LOCAL_ACC_W][RESERVATION_FAIL] = 0
	L2_cache_stats_breakdown[L1_WRBK_ACC][HIT] = 0
	L2_cache_stats_breakdown[L1_WRBK_ACC][HIT_RESERVED] = 0
	L2_cache_stats_breakdown[L1_WRBK_ACC][MISS] = 0
	L2_cache_stats_breakdown[L1_WRBK_ACC][RESERVATION_FAIL] = 0
	L2_cache_stats_breakdown[L2_WRBK_ACC][HIT] = 0
	L2_cache_stats_breakdown[L2_WRBK_ACC][HIT_RESERVED] = 0
	L2_cache_stats_breakdown[L2_WRBK_ACC][MISS] = 0
	L2_cache_stats_breakdown[L2_WRBK_ACC][RESERVATION_FAIL] = 0
	L2_cache_stats_breakdown[INST_ACC_R][HIT] = 0
	L2_cache_stats_breakdown[INST_ACC_R][HIT_RESERVED] = 81
	L2_cache_stats_breakdown[INST_ACC_R][MISS] = 4
	L2_cache_stats_breakdown[INST_ACC_R][RESERVATION_FAIL] = 0
	L2_cache_stats_breakdown[L1_WR_ALLOC_R][HIT] = 0
	L2_cache_stats_breakdown[L1_WR_ALLOC_R][HIT_RESERVED] = 0
	L2_cache_stats_breakdown[L1_WR_ALLOC_R][MISS] = 0
	L2_cache_stats_breakdown[L1_WR_ALLOC_R][RESERVATION_FAIL] = 0
	L2_cache_stats_breakdown[L2_WR_ALLOC_R][HIT] = 0
	L2_cache_stats_breakdown[L2_WR_ALLOC_R][HIT_RESERVED] = 0
	L2_cache_stats_breakdown[L2_WR_ALLOC_R][MISS] = 0
	L2_cache_stats_breakdown[L2_WR_ALLOC_R][RESERVATION_FAIL] = 0
	L2_cache_stats_breakdown[GLOBAL_ACC_R][TOTAL_ACCESS] = 8208
	L2_cache_stats_breakdown[CONST_ACC_R][TOTAL_ACCESS] = 28
	L2_cache_stats_breakdown[GLOBAL_ACC_W][TOTAL_ACCESS] = 15
	L2_cache_stats_breakdown[INST_ACC_R][TOTAL_ACCESS] = 85
L2_cache_data_port_util = 0.000
L2_cache_fill_port_util = 0.003

icnt_total_pkts_mem_to_simt=16940
icnt_total_pkts_simt_to_mem=8351
LD_mem_lat_dist  0 0 0 0 0 0 0 0 0 0 0 0 0 0 0 0 0 0 0 0 0 0 0 0 0 0 0
ST_mem_lat_dist  0 0 0 0 0 0 0 0 0 0 0 0 0 0 0 0 0 0 0 0 0 0 0 0 0 0 0
----------------------------Interconnect-DETAILS--------------------------------
Class 0:
Packet latency average = 15.6316
	minimum = 6
	maximum = 96
Network latency average = 12.6807
	minimum = 6
	maximum = 60
Slowest packet = 27
Flit latency average = 12.2535
	minimum = 6
	maximum = 60
Slowest flit = 27
Fragmentation average = 0
	minimum = 0
	maximum = 0
Injected packet rate average = 0.00134299
	minimum = 0.00117608 (at node 0)
	maximum = 0.00161913 (at node 28)
Accepted packet rate average = 0.00134299
	minimum = 0.00117608 (at node 0)
	maximum = 0.00161913 (at node 28)
Injected flit rate average = 0.00203728
	minimum = 0.00117608 (at node 0)
	maximum = 0.00356852 (at node 36)
Accepted flit rate average= 0.00203728
	minimum = 0.00148219 (at node 43)
	maximum = 0.00264216 (at node 1)
Injected packet length average = 1.51697
Accepted packet length average = 1.51697
Total in-flight flits = 0 (0 measured)
====== Overall Traffic Statistics ======
====== Traffic class 0 ======
Packet latency average = 15.6316 (1 samples)
	minimum = 6 (1 samples)
	maximum = 96 (1 samples)
Network latency average = 12.6807 (1 samples)
	minimum = 6 (1 samples)
	maximum = 60 (1 samples)
Flit latency average = 12.2535 (1 samples)
	minimum = 6 (1 samples)
	maximum = 60 (1 samples)
Fragmentation average = 0 (1 samples)
	minimum = 0 (1 samples)
	maximum = 0 (1 samples)
Injected packet rate average = 0.00134299 (1 samples)
	minimum = 0.00117608 (1 samples)
	maximum = 0.00161913 (1 samples)
Accepted packet rate average = 0.00134299 (1 samples)
	minimum = 0.00117608 (1 samples)
	maximum = 0.00161913 (1 samples)
Injected flit rate average = 0.00203728 (1 samples)
	minimum = 0.00117608 (1 samples)
	maximum = 0.00356852 (1 samples)
Accepted flit rate average = 0.00203728 (1 samples)
	minimum = 0.00148219 (1 samples)
	maximum = 0.00264216 (1 samples)
Injected packet size average = 1.51697 (1 samples)
Accepted packet size average = 1.51697 (1 samples)
Hops average = 1 (1 samples)
----------------------------END-of-Interconnect-DETAILS-------------------------


gpgpu_simulation_time = 0 days, 0 hrs, 1 min, 47 sec (107 sec)
gpgpu_simulation_rate = 46450 (inst/sec)
gpgpu_simulation_rate = 3260 (cycle/sec)

GPGPU-Sim PTX: cudaLaunch for 0x0x401649 (mode=performance simulation) on stream 0
GPGPU-Sim PTX: pushing kernel '_Z7Kernel2PbS_S_S_i' to stream 0, gridDim= (511,1,1) blockDim = (512,1,1) 
GPGPU-Sim uArch: Shader 3 bind to kernel 2 '_Z7Kernel2PbS_S_S_i'
GPGPU-Sim uArch: CTA/core = 4, limited by: threads
GPGPU-Sim uArch: Shader 4 bind to kernel 2 '_Z7Kernel2PbS_S_S_i'
GPGPU-Sim uArch: Shader 5 bind to kernel 2 '_Z7Kernel2PbS_S_S_i'
GPGPU-Sim uArch: Shader 6 bind to kernel 2 '_Z7Kernel2PbS_S_S_i'
GPGPU-Sim uArch: Shader 7 bind to kernel 2 '_Z7Kernel2PbS_S_S_i'
GPGPU-Sim uArch: Shader 8 bind to kernel 2 '_Z7Kernel2PbS_S_S_i'
GPGPU-Sim uArch: Shader 9 bind to kernel 2 '_Z7Kernel2PbS_S_S_i'
GPGPU-Sim uArch: Shader 10 bind to kernel 2 '_Z7Kernel2PbS_S_S_i'
GPGPU-Sim uArch: Shader 11 bind to kernel 2 '_Z7Kernel2PbS_S_S_i'
GPGPU-Sim uArch: Shader 12 bind to kernel 2 '_Z7Kernel2PbS_S_S_i'
GPGPU-Sim uArch: Shader 13 bind to kernel 2 '_Z7Kernel2PbS_S_S_i'
GPGPU-Sim uArch: Shader 14 bind to kernel 2 '_Z7Kernel2PbS_S_S_i'
GPGPU-Sim uArch: Shader 15 bind to kernel 2 '_Z7Kernel2PbS_S_S_i'
GPGPU-Sim uArch: Shader 16 bind to kernel 2 '_Z7Kernel2PbS_S_S_i'
GPGPU-Sim uArch: Shader 17 bind to kernel 2 '_Z7Kernel2PbS_S_S_i'
GPGPU-Sim uArch: Shader 18 bind to kernel 2 '_Z7Kernel2PbS_S_S_i'
GPGPU-Sim uArch: Shader 19 bind to kernel 2 '_Z7Kernel2PbS_S_S_i'
GPGPU-Sim uArch: Shader 20 bind to kernel 2 '_Z7Kernel2PbS_S_S_i'
GPGPU-Sim uArch: Shader 21 bind to kernel 2 '_Z7Kernel2PbS_S_S_i'
GPGPU-Sim uArch: Shader 22 bind to kernel 2 '_Z7Kernel2PbS_S_S_i'
GPGPU-Sim uArch: Shader 23 bind to kernel 2 '_Z7Kernel2PbS_S_S_i'
GPGPU-Sim uArch: Shader 24 bind to kernel 2 '_Z7Kernel2PbS_S_S_i'
GPGPU-Sim uArch: Shader 25 bind to kernel 2 '_Z7Kernel2PbS_S_S_i'
GPGPU-Sim uArch: Shader 26 bind to kernel 2 '_Z7Kernel2PbS_S_S_i'
GPGPU-Sim uArch: Shader 27 bind to kernel 2 '_Z7Kernel2PbS_S_S_i'
GPGPU-Sim uArch: Shader 0 bind to kernel 2 '_Z7Kernel2PbS_S_S_i'
GPGPU-Sim uArch: Shader 1 bind to kernel 2 '_Z7Kernel2PbS_S_S_i'
GPGPU-Sim uArch: Shader 2 bind to kernel 2 '_Z7Kernel2PbS_S_S_i'
GPGPU-Sim uArch: Shader 14 bind to kernel 2 '_Z7Kernel2PbS_S_S_i'
GPGPU-Sim uArch: Shader 15 bind to kernel 2 '_Z7Kernel2PbS_S_S_i'
GPGPU-Sim uArch: Shader 16 bind to kernel 2 '_Z7Kernel2PbS_S_S_i'
GPGPU-Sim uArch: Shader 17 bind to kernel 2 '_Z7Kernel2PbS_S_S_i'
GPGPU-Sim uArch: Shader 18 bind to kernel 2 '_Z7Kernel2PbS_S_S_i'
GPGPU-Sim uArch: Shader 20 bind to kernel 2 '_Z7Kernel2PbS_S_S_i'
GPGPU-Sim uArch: Shader 21 bind to kernel 2 '_Z7Kernel2PbS_S_S_i'
GPGPU-Sim uArch: Shader 22 bind to kernel 2 '_Z7Kernel2PbS_S_S_i'
GPGPU-Sim uArch: Shader 23 bind to kernel 2 '_Z7Kernel2PbS_S_S_i'
GPGPU-Sim uArch: Shader 24 bind to kernel 2 '_Z7Kernel2PbS_S_S_i'
GPGPU-Sim uArch: Shader 25 bind to kernel 2 '_Z7Kernel2PbS_S_S_i'
GPGPU-Sim uArch: Shader 26 bind to kernel 2 '_Z7Kernel2PbS_S_S_i'
GPGPU-Sim uArch: Shader 27 bind to kernel 2 '_Z7Kernel2PbS_S_S_i'
GPGPU-Sim uArch: Shader 1 bind to kernel 2 '_Z7Kernel2PbS_S_S_i'
GPGPU-Sim uArch: Shader 2 bind to kernel 2 '_Z7Kernel2PbS_S_S_i'
GPGPU-Sim uArch: Shader 3 bind to kernel 2 '_Z7Kernel2PbS_S_S_i'
GPGPU-Sim uArch: Shader 4 bind to kernel 2 '_Z7Kernel2PbS_S_S_i'
GPGPU-Sim uArch: Shader 5 bind to kernel 2 '_Z7Kernel2PbS_S_S_i'
GPGPU-Sim uArch: Shader 6 bind to kernel 2 '_Z7Kernel2PbS_S_S_i'
GPGPU-Sim uArch: Shader 7 bind to kernel 2 '_Z7Kernel2PbS_S_S_i'
GPGPU-Sim uArch: Shader 8 bind to kernel 2 '_Z7Kernel2PbS_S_S_i'
GPGPU-Sim uArch: Shader 9 bind to kernel 2 '_Z7Kernel2PbS_S_S_i'
GPGPU-Sim uArch: Shader 10 bind to kernel 2 '_Z7Kernel2PbS_S_S_i'
GPGPU-Sim uArch: Shader 11 bind to kernel 2 '_Z7Kernel2PbS_S_S_i'
GPGPU-Sim uArch: Shader 12 bind to kernel 2 '_Z7Kernel2PbS_S_S_i'
GPGPU-Sim uArch: Shader 13 bind to kernel 2 '_Z7Kernel2PbS_S_S_i'
GPGPU-Sim uArch: Shader 1 bind to kernel 2 '_Z7Kernel2PbS_S_S_i'
GPGPU-Sim uArch: Shader 2 bind to kernel 2 '_Z7Kernel2PbS_S_S_i'
GPGPU-Sim uArch: Shader 3 bind to kernel 2 '_Z7Kernel2PbS_S_S_i'
GPGPU-Sim uArch: Shader 4 bind to kernel 2 '_Z7Kernel2PbS_S_S_i'
GPGPU-Sim uArch: Shader 5 bind to kernel 2 '_Z7Kernel2PbS_S_S_i'
GPGPU-Sim uArch: Shader 6 bind to kernel 2 '_Z7Kernel2PbS_S_S_i'
GPGPU-Sim uArch: Shader 7 bind to kernel 2 '_Z7Kernel2PbS_S_S_i'
GPGPU-Sim uArch: Shader 8 bind to kernel 2 '_Z7Kernel2PbS_S_S_i'
GPGPU-Sim uArch: Shader 9 bind to kernel 2 '_Z7Kernel2PbS_S_S_i'
GPGPU-Sim uArch: Shader 10 bind to kernel 2 '_Z7Kernel2PbS_S_S_i'
GPGPU-Sim uArch: Shader 11 bind to kernel 2 '_Z7Kernel2PbS_S_S_i'
GPGPU-Sim uArch: Shader 12 bind to kernel 2 '_Z7Kernel2PbS_S_S_i'
GPGPU-Sim uArch: Shader 13 bind to kernel 2 '_Z7Kernel2PbS_S_S_i'
GPGPU-Sim uArch: Shader 14 bind to kernel 2 '_Z7Kernel2PbS_S_S_i'
GPGPU-Sim uArch: Shader 15 bind to kernel 2 '_Z7Kernel2PbS_S_S_i'
GPGPU-Sim uArch: Shader 16 bind to kernel 2 '_Z7Kernel2PbS_S_S_i'
GPGPU-Sim uArch: Shader 17 bind to kernel 2 '_Z7Kernel2PbS_S_S_i'
GPGPU-Sim uArch: Shader 18 bind to kernel 2 '_Z7Kernel2PbS_S_S_i'
GPGPU-Sim uArch: Shader 19 bind to kernel 2 '_Z7Kernel2PbS_S_S_i'
GPGPU-Sim uArch: Shader 20 bind to kernel 2 '_Z7Kernel2PbS_S_S_i'
GPGPU-Sim uArch: Shader 21 bind to kernel 2 '_Z7Kernel2PbS_S_S_i'
GPGPU-Sim uArch: Shader 22 bind to kernel 2 '_Z7Kernel2PbS_S_S_i'
GPGPU-Sim uArch: Shader 23 bind to kernel 2 '_Z7Kernel2PbS_S_S_i'
GPGPU-Sim uArch: Shader 24 bind to kernel 2 '_Z7Kernel2PbS_S_S_i'
GPGPU-Sim uArch: Shader 25 bind to kernel 2 '_Z7Kernel2PbS_S_S_i'
GPGPU-Sim uArch: Shader 26 bind to kernel 2 '_Z7Kernel2PbS_S_S_i'
GPGPU-Sim uArch: Shader 27 bind to kernel 2 '_Z7Kernel2PbS_S_S_i'
GPGPU-Sim uArch: Shader 0 bind to kernel 2 '_Z7Kernel2PbS_S_S_i'
Destroy streams for kernel 2: size 0
kernel_name = _Z7Kernel2PbS_S_S_i 
kernel_launch_uid = 2 
gpu_sim_cycle = 41819
gpu_sim_insn = 4446874
gpu_ipc =     106.3362
gpu_tot_sim_cycle = 615332
gpu_tot_sim_insn = 9417112
gpu_tot_ipc =      15.3041
gpu_tot_issued_cta = 1022
max_total_param_size = 0
gpu_stall_dramfull = 390
gpu_stall_icnt2sh    = 12306
partiton_reqs_in_parallel = 919628
partiton_reqs_in_parallel_total    = 2731124
partiton_level_parallism =      21.9907
partiton_level_parallism_total  =       5.9330
partiton_reqs_in_parallel_util = 919628
partiton_reqs_in_parallel_util_total    = 2731124
gpu_sim_cycle_parition_util = 41819
gpu_tot_sim_cycle_parition_util    = 124142
partiton_level_parallism_util =      21.9907
partiton_level_parallism_util_total  =      21.9977
partiton_replys_in_parallel = 8255
partiton_replys_in_parallel_total    = 8336
L2_BW  =      18.7102 GB/Sec
L2_BW_total  =       2.5556 GB/Sec
gpu_total_sim_rate=65396

========= Core cache stats =========
L1I_cache:
	L1I_total_cache_accesses = 171793
	L1I_total_cache_misses = 5466
	L1I_total_cache_miss_rate = 0.0318
	L1I_total_cache_pending_hits = 0
	L1I_total_cache_reservation_fails = 16141
L1D_cache:
	L1D_cache_core[0]: Access = 0, Miss = 0, Miss_rate = -nan, Pending_hits = 0, Reservation_fails = 0
	L1D_cache_core[1]: Access = 0, Miss = 0, Miss_rate = -nan, Pending_hits = 0, Reservation_fails = 0
	L1D_cache_core[2]: Access = 0, Miss = 0, Miss_rate = -nan, Pending_hits = 0, Reservation_fails = 0
	L1D_cache_core[3]: Access = 0, Miss = 0, Miss_rate = -nan, Pending_hits = 0, Reservation_fails = 0
	L1D_cache_core[4]: Access = 0, Miss = 0, Miss_rate = -nan, Pending_hits = 0, Reservation_fails = 0
	L1D_cache_core[5]: Access = 0, Miss = 0, Miss_rate = -nan, Pending_hits = 0, Reservation_fails = 0
	L1D_cache_core[6]: Access = 0, Miss = 0, Miss_rate = -nan, Pending_hits = 0, Reservation_fails = 0
	L1D_cache_core[7]: Access = 0, Miss = 0, Miss_rate = -nan, Pending_hits = 0, Reservation_fails = 0
	L1D_cache_core[8]: Access = 0, Miss = 0, Miss_rate = -nan, Pending_hits = 0, Reservation_fails = 0
	L1D_cache_core[9]: Access = 0, Miss = 0, Miss_rate = -nan, Pending_hits = 0, Reservation_fails = 0
	L1D_cache_core[10]: Access = 0, Miss = 0, Miss_rate = -nan, Pending_hits = 0, Reservation_fails = 0
	L1D_cache_core[11]: Access = 0, Miss = 0, Miss_rate = -nan, Pending_hits = 0, Reservation_fails = 0
	L1D_cache_core[12]: Access = 0, Miss = 0, Miss_rate = -nan, Pending_hits = 0, Reservation_fails = 0
	L1D_cache_core[13]: Access = 0, Miss = 0, Miss_rate = -nan, Pending_hits = 0, Reservation_fails = 0
	L1D_cache_core[14]: Access = 0, Miss = 0, Miss_rate = -nan, Pending_hits = 0, Reservation_fails = 0
	L1D_cache_core[15]: Access = 0, Miss = 0, Miss_rate = -nan, Pending_hits = 0, Reservation_fails = 0
	L1D_cache_core[16]: Access = 0, Miss = 0, Miss_rate = -nan, Pending_hits = 0, Reservation_fails = 0
	L1D_cache_core[17]: Access = 0, Miss = 0, Miss_rate = -nan, Pending_hits = 0, Reservation_fails = 0
	L1D_cache_core[18]: Access = 0, Miss = 0, Miss_rate = -nan, Pending_hits = 0, Reservation_fails = 0
	L1D_cache_core[19]: Access = 0, Miss = 0, Miss_rate = -nan, Pending_hits = 0, Reservation_fails = 0
	L1D_cache_core[20]: Access = 0, Miss = 0, Miss_rate = -nan, Pending_hits = 0, Reservation_fails = 0
	L1D_cache_core[21]: Access = 0, Miss = 0, Miss_rate = -nan, Pending_hits = 0, Reservation_fails = 0
	L1D_cache_core[22]: Access = 0, Miss = 0, Miss_rate = -nan, Pending_hits = 0, Reservation_fails = 0
	L1D_cache_core[23]: Access = 0, Miss = 0, Miss_rate = -nan, Pending_hits = 0, Reservation_fails = 0
	L1D_cache_core[24]: Access = 0, Miss = 0, Miss_rate = -nan, Pending_hits = 0, Reservation_fails = 0
	L1D_cache_core[25]: Access = 0, Miss = 0, Miss_rate = -nan, Pending_hits = 0, Reservation_fails = 0
	L1D_cache_core[26]: Access = 0, Miss = 0, Miss_rate = -nan, Pending_hits = 0, Reservation_fails = 0
	L1D_cache_core[27]: Access = 0, Miss = 0, Miss_rate = -nan, Pending_hits = 0, Reservation_fails = 0
	L1D_total_cache_accesses = 0
	L1D_total_cache_misses = 0
	L1D_total_cache_pending_hits = 0
	L1D_total_cache_reservation_fails = 0
	L1D_cache_data_port_util = 0.000
	L1D_cache_fill_port_util = 0.000
L1C_cache:
	L1C_total_cache_accesses = 98112
[...]
F:  1464879----T:  1465079 	 St: c01ed1e0 Sz: 32 	 Sm: 0 	 T: dma(0.135044)
F:  1465421----T:  1465621 	 St: c08ae1a0 Sz: 32 	 Sm: 0 	 T: dma(0.135044)
F:  1465622----T:  1465822 	 St: c08875a0 Sz: 32 	 Sm: 0 	 T: dma(0.135044)
F:  1693631----T:  1697244 	 	 	 Kl: 6 	 Sm: 0 	 T: kernel_launch(2.439568)
F:  1697244----T:  1699779 	 St: 80000000 Sz: 1 	 Sm: 0 	 T: memcpy_d2h(1.711681)
F:  1699780----T:  1702315 	 St: 80000000 Sz: 1 	 Sm: 0 	 T: memcpy_h2d(1.711681)
F:  1924466----T:  2364885 	 	 	 Kl: 7 	 Sm: 0 	 T: kernel_launch(297.379486)
F:  1925016----T:  1930977 	 St: c0010000 Sz: 40960 	 Sm: 0 	 T: memcpy_h2d(4.024983)
F:  1930977----T:  1931177 	 St: c02dfae0 Sz: 32 	 Sm: 0 	 T: dma(0.135044)
F:  1931177----T:  1935396 	 St: c001a000 Sz: 24576 	 Sm: 0 	 T: memcpy_h2d(2.848751)
F:  1935396----T:  1935596 	 St: c02fcde0 Sz: 32 	 Sm: 0 	 T: dma(0.135044)
F:  1935596----T:  1935796 	 St: c030bc20 Sz: 32 	 Sm: 0 	 T: dma(0.135044)
F:  1935796----T:  1941757 	 St: c0020000 Sz: 40960 	 Sm: 0 	 T: memcpy_h2d(4.024983)
F:  1941757----T:  1941957 	 St: c031c3e0 Sz: 32 	 Sm: 0 	 T: dma(0.135044)
F:  1941957----T:  1942157 	 St: c030fca0 Sz: 32 	 Sm: 0 	 T: dma(0.135044)
F:  1942157----T:  1976172 	 St: c002a000 Sz: 286720 	 Sm: 0 	 T: memcpy_h2d(22.967590)
F:  1976172----T:  1976372 	 St: c0321ee0 Sz: 32 	 Sm: 0 	 T: dma(0.135044)
F:  1976372----T:  1976572 	 St: c0328c40 Sz: 32 	 Sm: 0 	 T: dma(0.135044)
F:  1976572----T:  1976772 	 St: c0339ac0 Sz: 32 	 Sm: 0 	 T: dma(0.135044)
F:  1976772----T:  1976972 	 St: c033bda0 Sz: 32 	 Sm: 0 	 T: dma(0.135044)
F:  1976972----T:  1977172 	 St: c033cae0 Sz: 32 	 Sm: 0 	 T: dma(0.135044)
F:  1977172----T:  1977372 	 St: c0339cc0 Sz: 32 	 Sm: 0 	 T: dma(0.135044)
F:  1977372----T:  1977572 	 St: c03cf300 Sz: 32 	 Sm: 0 	 T: dma(0.135044)
F:  1977572----T:  1977772 	 St: c0392a40 Sz: 32 	 Sm: 0 	 T: dma(0.135044)
F:  1977772----T:  1977972 	 St: c0356c40 Sz: 32 	 Sm: 0 	 T: dma(0.135044)
F:  1977972----T:  1978172 	 St: c03aefe0 Sz: 32 	 Sm: 0 	 T: dma(0.135044)
F:  1978172----T:  1978372 	 St: c03b3500 Sz: 32 	 Sm: 0 	 T: dma(0.135044)
F:  1978372----T:  1978572 	 St: c0361d20 Sz: 32 	 Sm: 0 	 T: dma(0.135044)
F:  1978572----T:  1978772 	 St: c03682c0 Sz: 32 	 Sm: 0 	 T: dma(0.135044)
F:  1978772----T:  1978972 	 St: c03a3240 Sz: 32 	 Sm: 0 	 T: dma(0.135044)
F:  1978972----T:  1979172 	 St: c036ae00 Sz: 32 	 Sm: 0 	 T: dma(0.135044)
F:  1979172----T:  1979372 	 St: c03dc500 Sz: 32 	 Sm: 0 	 T: dma(0.135044)
F:  1979372----T:  1979572 	 St: c03527c0 Sz: 32 	 Sm: 0 	 T: dma(0.135044)
F:  1979572----T:  1979772 	 St: c03a04a0 Sz: 32 	 Sm: 0 	 T: dma(0.135044)
F:  1979772----T:  1979972 	 St: c036a9a0 Sz: 32 	 Sm: 0 	 T: dma(0.135044)
F:  1979972----T:  1980172 	 St: c03ab2c0 Sz: 32 	 Sm: 0 	 T: dma(0.135044)
F:  1980172----T:  1980372 	 St: c03dd7e0 Sz: 32 	 Sm: 0 	 T: dma(0.135044)
F:  1980372----T:  1980572 	 St: c03c38c0 Sz: 32 	 Sm: 0 	 T: dma(0.135044)
F:  1980572----T:  1980772 	 St: c03d5f80 Sz: 32 	 Sm: 0 	 T: dma(0.135044)
F:  1980772----T:  1980972 	 St: c03dc0c0 Sz: 64 	 Sm: 0 	 T: dma(0.135044)
F:  1980972----T:  1981172 	 St: c04015c0 Sz: 32 	 Sm: 0 	 T: dma(0.135044)
F:  1981172----T:  1981372 	 St: c0355140 Sz: 32 	 Sm: 0 	 T: dma(0.135044)
F:  1981372----T:  1981572 	 St: c03aa6e0 Sz: 32 	 Sm: 0 	 T: dma(0.135044)
F:  1981572----T:  1981772 	 St: c036e340 Sz: 32 	 Sm: 0 	 T: dma(0.135044)
F:  1981772----T:  1981972 	 St: c03fe6c0 Sz: 32 	 Sm: 0 	 T: dma(0.135044)
F:  1981972----T:  1986613 	 St: c0410000 Sz: 28672 	 Sm: 0 	 T: memcpy_h2d(3.133693)
F:  1986613----T:  1992128 	 St: c0417000 Sz: 36864 	 Sm: 0 	 T: memcpy_h2d(3.723835)
F:  1992128----T:  2000830 	 St: c0370000 Sz: 65536 	 Sm: 0 	 T: memcpy_h2d(5.875760)
F:  2000830----T:  2008610 	 St: c03e0000 Sz: 57344 	 Sm: 0 	 T: memcpy_h2d(5.253207)
F:  2008610----T:  2011410 	 St: c03ee000 Sz: 8192 	 Sm: 0 	 T: memcpy_h2d(1.890614)
F:  2011410----T:  2014840 	 St: c0340000 Sz: 16384 	 Sm: 0 	 T: memcpy_h2d(2.316003)
F:  2014840----T:  2021705 	 St: c0344000 Sz: 49152 	 Sm: 0 	 T: memcpy_h2d(4.635382)
F:  2021705----T:  2028117 	 St: c0380000 Sz: 45056 	 Sm: 0 	 T: memcpy_h2d(4.329507)
F:  2028117----T:  2031929 	 St: c038b000 Sz: 20480 	 Sm: 0 	 T: memcpy_h2d(2.573936)
F:  2031929----T:  2040631 	 St: c03a0000 Sz: 65536 	 Sm: 0 	 T: memcpy_h2d(5.875760)
F:  2041174----T:  2046689 	 St: c0080000 Sz: 36864 	 Sm: 0 	 T: memcpy_h2d(3.723835)
F:  2046689----T:  2046889 	 St: c043c060 Sz: 32 	 Sm: 0 	 T: dma(0.135044)
F:  2046889----T:  2047089 	 St: c043d920 Sz: 32 	 Sm: 0 	 T: dma(0.135044)
F:  2047089----T:  2047289 	 St: c043fea0 Sz: 32 	 Sm: 0 	 T: dma(0.135044)
F:  2047289----T:  2047489 	 St: c0439c00 Sz: 32 	 Sm: 0 	 T: dma(0.135044)
F:  2047489----T:  2047689 	 St: c043a720 Sz: 32 	 Sm: 0 	 T: dma(0.135044)
F:  2047689----T:  2047889 	 St: c0446100 Sz: 32 	 Sm: 0 	 T: dma(0.135044)
F:  2047889----T:  2048089 	 St: c0459cc0 Sz: 32 	 Sm: 0 	 T: dma(0.135044)
F:  2048089----T:  2048289 	 St: c045b220 Sz: 32 	 Sm: 0 	 T: dma(0.135044)
F:  2048289----T:  2048489 	 St: c044fa20 Sz: 32 	 Sm: 0 	 T: dma(0.135044)
F:  2048489----T:  2048689 	 St: c0454a00 Sz: 32 	 Sm: 0 	 T: dma(0.135044)
F:  2048689----T:  2048889 	 St: c0441380 Sz: 32 	 Sm: 0 	 T: dma(0.135044)
F:  2048889----T:  2049089 	 St: c0449720 Sz: 32 	 Sm: 0 	 T: dma(0.135044)
F:  2049089----T:  2189009 	 St: c0089000 Sz: 1208320 	 Sm: 0 	 T: memcpy_h2d(94.476707)
F:  2189009----T:  2220202 	 St: c01c0000 Sz: 262144 	 Sm: 0 	 T: memcpy_h2d(21.062120)
F:  2220202----T:  2220402 	 St: c0497060 Sz: 32 	 Sm: 0 	 T: dma(0.135044)
F:  2220402----T:  2220602 	 St: c049be20 Sz: 32 	 Sm: 0 	 T: dma(0.135044)
F:  2220602----T:  2220802 	 St: c049f8e0 Sz: 32 	 Sm: 0 	 T: dma(0.135044)
F:  2220802----T:  2221002 	 St: c04a8740 Sz: 32 	 Sm: 0 	 T: dma(0.135044)
F:  2221002----T:  2221202 	 St: c0503920 Sz: 32 	 Sm: 0 	 T: dma(0.135044)
F:  2221202----T:  2221402 	 St: c05652c0 Sz: 32 	 Sm: 0 	 T: dma(0.135044)
F:  2221402----T:  2221602 	 St: c04dafa0 Sz: 32 	 Sm: 0 	 T: dma(0.135044)
F:  2221602----T:  2221802 	 St: c048b1e0 Sz: 32 	 Sm: 0 	 T: dma(0.135044)
F:  2221802----T:  2222002 	 St: c04efec0 Sz: 32 	 Sm: 0 	 T: dma(0.135044)
F:  2222002----T:  2222202 	 St: c047b840 Sz: 32 	 Sm: 0 	 T: dma(0.135044)
F:  2222202----T:  2222402 	 St: c04d3be0 Sz: 32 	 Sm: 0 	 T: dma(0.135044)
F:  2222402----T:  2222602 	 St: c0481ec0 Sz: 32 	 Sm: 0 	 T: dma(0.135044)
F:  2222602----T:  2222802 	 St: c0497680 Sz: 32 	 Sm: 0 	 T: dma(0.135044)
F:  2222802----T:  2223002 	 St: c04bc2a0 Sz: 32 	 Sm: 0 	 T: dma(0.135044)
F:  2223002----T:  2223202 	 St: c04a5400 Sz: 32 	 Sm: 0 	 T: dma(0.135044)
F:  2223202----T:  2223402 	 St: c04bc640 Sz: 32 	 Sm: 0 	 T: dma(0.135044)
F:  2223402----T:  2223602 	 St: c055d5a0 Sz: 32 	 Sm: 0 	 T: dma(0.135044)
F:  2223602----T:  2223802 	 St: c056a560 Sz: 32 	 Sm: 0 	 T: dma(0.135044)
F:  2223802----T:  2231582 	 St: c04c0000 Sz: 57344 	 Sm: 0 	 T: memcpy_h2d(5.253207)
F:  2231582----T:  2234382 	 St: c04ce000 Sz: 8192 	 Sm: 0 	 T: memcpy_h2d(1.890614)
F:  2234382----T:  2239023 	 St: c0530000 Sz: 28672 	 Sm: 0 	 T: memcpy_h2d(3.133693)
F:  2239023----T:  2244538 	 St: c0537000 Sz: 36864 	 Sm: 0 	 T: memcpy_h2d(3.723835)
F:  2244538----T:  2253240 	 St: c0520000 Sz: 65536 	 Sm: 0 	 T: memcpy_h2d(5.875760)
F:  2253240----T:  2261480 	 St: c0460000 Sz: 61440 	 Sm: 0 	 T: memcpy_h2d(5.563808)
F:  2261480----T:  2264085 	 St: c046f000 Sz: 4096 	 Sm: 0 	 T: memcpy_h2d(1.758947)
F:  2265108----T:  2265308 	 St: c05bbec0 Sz: 32 	 Sm: 0 	 T: dma(0.135044)
F:  2265308----T:  2265508 	 St: c058db40 Sz: 32 	 Sm: 0 	 T: dma(0.135044)
F:  2265508----T:  2265708 	 St: c05b4be0 Sz: 32 	 Sm: 0 	 T: dma(0.135044)
F:  2265708----T:  2265908 	 St: c05ddf00 Sz: 32 	 Sm: 0 	 T: dma(0.135044)
F:  2265908----T:  2266108 	 St: c0577b80 Sz: 32 	 Sm: 0 	 T: dma(0.135044)
F:  2266108----T:  2266308 	 St: c0611060 Sz: 32 	 Sm: 0 	 T: dma(0.135044)
F:  2266308----T:  2266508 	 St: c0579780 Sz: 32 	 Sm: 0 	 T: dma(0.135044)
F:  2266508----T:  2266708 	 St: c05dd720 Sz: 32 	 Sm: 0 	 T: dma(0.135044)
F:  2266708----T:  2266908 	 St: c05d6bc0 Sz: 32 	 Sm: 0 	 T: dma(0.135044)
F:  2266908----T:  2267108 	 St: c0687180 Sz: 32 	 Sm: 0 	 T: dma(0.135044)
F:  2267108----T:  2267308 	 St: c05f9280 Sz: 32 	 Sm: 0 	 T: dma(0.135044)
F:  2267308----T:  2267508 	 St: c06617c0 Sz: 32 	 Sm: 0 	 T: dma(0.135044)
F:  2267508----T:  2267708 	 St: c05d4660 Sz: 32 	 Sm: 0 	 T: dma(0.135044)
F:  2267708----T:  2267908 	 St: c065d340 Sz: 32 	 Sm: 0 	 T: dma(0.135044)
F:  2267908----T:  2268108 	 St: c065d4a0 Sz: 32 	 Sm: 0 	 T: dma(0.135044)
F:  2268108----T:  2268308 	 St: c0687860 Sz: 32 	 Sm: 0 	 T: dma(0.135044)
F:  2268308----T:  2268508 	 St: c05f3080 Sz: 32 	 Sm: 0 	 T: dma(0.135044)
F:  2268508----T:  2268708 	 St: c0661400 Sz: 32 	 Sm: 0 	 T: dma(0.135044)
F:  2268708----T:  2268908 	 St: c0685160 Sz: 32 	 Sm: 0 	 T: dma(0.135044)
F:  2268908----T:  2269108 	 St: c066a040 Sz: 32 	 Sm: 0 	 T: dma(0.135044)
F:  2269108----T:  2269308 	 St: c061cce0 Sz: 32 	 Sm: 0 	 T: dma(0.135044)
F:  2269308----T:  2269508 	 St: c06351a0 Sz: 32 	 Sm: 0 	 T: dma(0.135044)
F:  2269508----T:  2269708 	 St: c0632860 Sz: 32 	 Sm: 0 	 T: dma(0.135044)
F:  2269708----T:  2269908 	 St: c067e2e0 Sz: 32 	 Sm: 0 	 T: dma(0.135044)
F:  2269908----T:  2270108 	 St: c068ecc0 Sz: 32 	 Sm: 0 	 T: dma(0.135044)
F:  2270108----T:  2270308 	 St: c0696ec0 Sz: 32 	 Sm: 0 	 T: dma(0.135044)
F:  2270308----T:  2270508 	 St: c0681900 Sz: 32 	 Sm: 0 	 T: dma(0.135044)
F:  2270508----T:  2270708 	 St: c0674bc0 Sz: 32 	 Sm: 0 	 T: dma(0.135044)
F:  2270708----T:  2270908 	 St: c06c88a0 Sz: 32 	 Sm: 0 	 T: dma(0.135044)
F:  2270908----T:  2271108 	 St: c06d4300 Sz: 32 	 Sm: 0 	 T: dma(0.135044)
F:  2271108----T:  2271308 	 St: c06a7980 Sz: 32 	 Sm: 0 	 T: dma(0.135044)
F:  2271308----T:  2271508 	 St: c06d4120 Sz: 32 	 Sm: 0 	 T: dma(0.135044)
F:  2271508----T:  2271708 	 St: c0732280 Sz: 32 	 Sm: 0 	 T: dma(0.135044)
F:  2271708----T:  2271908 	 St: c072d7c0 Sz: 32 	 Sm: 0 	 T: dma(0.135044)
F:  2271908----T:  2272108 	 St: c070a420 Sz: 32 	 Sm: 0 	 T: dma(0.135044)
F:  2272108----T:  2272308 	 St: c078e2a0 Sz: 32 	 Sm: 0 	 T: dma(0.135044)
F:  2272308----T:  2272508 	 St: c079f8c0 Sz: 32 	 Sm: 0 	 T: dma(0.135044)
F:  2272508----T:  2272708 	 St: c0749b00 Sz: 32 	 Sm: 0 	 T: dma(0.135044)
F:  2272708----T:  2272908 	 St: c07687c0 Sz: 32 	 Sm: 0 	 T: dma(0.135044)
F:  2272908----T:  2273108 	 St: c0767ae0 Sz: 32 	 Sm: 0 	 T: dma(0.135044)
F:  2273108----T:  2273308 	 St: c0775a80 Sz: 32 	 Sm: 0 	 T: dma(0.135044)
F:  2273308----T:  2278382 	 St: c0600000 Sz: 32768 	 Sm: 0 	 T: memcpy_h2d(3.426064)
F:  2278382----T:  2283456 	 St: c0608000 Sz: 32768 	 Sm: 0 	 T: memcpy_h2d(3.426064)
F:  2283456----T:  2288971 	 St: c05c0000 Sz: 36864 	 Sm: 0 	 T: memcpy_h2d(3.723835)
F:  2288971----T:  2293612 	 St: c05c9000 Sz: 28672 	 Sm: 0 	 T: memcpy_h2d(3.133693)
F:  2293612----T:  2302314 	 St: c06f0000 Sz: 65536 	 Sm: 0 	 T: memcpy_h2d(5.875760)
F:  2302314----T:  2308726 	 St: c06e0000 Sz: 45056 	 Sm: 0 	 T: memcpy_h2d(4.329507)
F:  2308726----T:  2312538 	 St: c06eb000 Sz: 20480 	 Sm: 0 	 T: memcpy_h2d(2.573936)
F:  2312538----T:  2315624 	 St: c0710000 Sz: 12288 	 Sm: 0 	 T: memcpy_h2d(2.083727)
F:  2315624----T:  2322946 	 St: c0713000 Sz: 53248 	 Sm: 0 	 T: memcpy_h2d(4.943957)
F:  2323961----T:  2324161 	 St: c07a7860 Sz: 32 	 Sm: 0 	 T: dma(0.135044)
F:  2324161----T:  2324361 	 St: c07a9820 Sz: 32 	 Sm: 0 	 T: dma(0.135044)
F:  2324361----T:  2324561 	 St: c07e10c0 Sz: 32 	 Sm: 0 	 T: dma(0.135044)
F:  2324561----T:  2324761 	 St: c0822ba0 Sz: 32 	 Sm: 0 	 T: dma(0.135044)
F:  2324761----T:  2324961 	 St: c0830380 Sz: 32 	 Sm: 0 	 T: dma(0.135044)
F:  2324961----T:  2325161 	 St: c07ebd40 Sz: 32 	 Sm: 0 	 T: dma(0.135044)
F:  2325161----T:  2325361 	 St: c08318c0 Sz: 32 	 Sm: 0 	 T: dma(0.135044)
F:  2325361----T:  2325561 	 St: c07addc0 Sz: 32 	 Sm: 0 	 T: dma(0.135044)
F:  2325561----T:  2325761 	 St: c0898220 Sz: 32 	 Sm: 0 	 T: dma(0.135044)
F:  2325761----T:  2325961 	 St: c082d100 Sz: 32 	 Sm: 0 	 T: dma(0.135044)
F:  2325961----T:  2326161 	 St: c088fc40 Sz: 32 	 Sm: 0 	 T: dma(0.135044)
F:  2326161----T:  2326361 	 St: c0837d80 Sz: 32 	 Sm: 0 	 T: dma(0.135044)
F:  2326361----T:  2326561 	 St: c07a6480 Sz: 32 	 Sm: 0 	 T: dma(0.135044)
F:  2326561----T:  2326761 	 St: c07bf880 Sz: 32 	 Sm: 0 	 T: dma(0.135044)
F:  2326761----T:  2326961 	 St: c0826a60 Sz: 32 	 Sm: 0 	 T: dma(0.135044)
F:  2326961----T:  2327161 	 St: c0865780 Sz: 32 	 Sm: 0 	 T: dma(0.135044)
F:  2327161----T:  2327361 	 St: c0853020 Sz: 32 	 Sm: 0 	 T: dma(0.135044)
F:  2327361----T:  2327561 	 St: c0867120 Sz: 32 	 Sm: 0 	 T: dma(0.135044)
F:  2327561----T:  2327761 	 St: c0858400 Sz: 32 	 Sm: 0 	 T: dma(0.135044)
F:  2327761----T:  2327961 	 St: c0876d00 Sz: 32 	 Sm: 0 	 T: dma(0.135044)
F:  2327961----T:  2328161 	 St: c0849620 Sz: 32 	 Sm: 0 	 T: dma(0.135044)
F:  2328161----T:  2328361 	 St: c08b66a0 Sz: 32 	 Sm: 0 	 T: dma(0.135044)
F:  2328361----T:  2330966 	 St: c07d0000 Sz: 4096 	 Sm: 0 	 T: memcpy_h2d(1.758947)
F:  2330966----T:  2339206 	 St: c07d1000 Sz: 61440 	 Sm: 0 	 T: memcpy_h2d(5.563808)
F:  2339206----T:  2342006 	 St: c07c0000 Sz: 8192 	 Sm: 0 	 T: memcpy_h2d(1.890614)
F:  2342006----T:  2349786 	 St: c07c2000 Sz: 57344 	 Sm: 0 	 T: memcpy_h2d(5.253207)
F:  2349786----T:  2354427 	 St: c08a0000 Sz: 28672 	 Sm: 0 	 T: memcpy_h2d(3.133693)
F:  2354427----T:  2359942 	 St: c08a7000 Sz: 36864 	 Sm: 0 	 T: memcpy_h2d(3.723835)
F:  2587035----T:  2590946 	 	 	 Kl: 8 	 Sm: 0 	 T: kernel_launch(2.640783)
F:  2590946----T:  2593481 	 St: 80000000 Sz: 1 	 Sm: 0 	 T: memcpy_d2h(1.711681)
F:  2593482----T:  2596017 	 St: 80000000 Sz: 1 	 Sm: 0 	 T: memcpy_h2d(1.711681)
F:  2818168----T:  3438906 	 	 	 Kl: 9 	 Sm: 0 	 T: kernel_launch(419.134369)
F:  2819206----T:  2823018 	 St: c02e0000 Sz: 20480 	 Sm: 0 	 T: memcpy_h2d(2.573936)
F:  2823018----T:  2829430 	 St: c02e5000 Sz: 45056 	 Sm: 0 	 T: memcpy_h2d(4.329507)
F:  2829430----T:  2833649 	 St: c02d0000 Sz: 24576 	 Sm: 0 	 T: memcpy_h2d(2.848751)
F:  2833649----T:  2839610 	 St: c02d6000 Sz: 40960 	 Sm: 0 	 T: memcpy_h2d(4.024983)
F:  2839610----T:  2848312 	 St: c02f0000 Sz: 65536 	 Sm: 0 	 T: memcpy_h2d(5.875760)
F:  2848312----T:  2857014 	 St: c0300000 Sz: 65536 	 Sm: 0 	 T: memcpy_h2d(5.875760)
F:  2857014----T:  2880686 	 St: c0310000 Sz: 196608 	 Sm: 0 	 T: memcpy_h2d(15.983795)
F:  2880686----T:  2896849 	 St: c0350000 Sz: 131072 	 Sm: 0 	 T: memcpy_h2d(10.913572)
F:  2896849----T:  2905551 	 St: c0390000 Sz: 65536 	 Sm: 0 	 T: memcpy_h2d(5.875760)
F:  2905551----T:  2929223 	 St: c03b0000 Sz: 196608 	 Sm: 0 	 T: memcpy_h2d(15.983795)
F:  2929223----T:  2945386 	 St: c03f0000 Sz: 131072 	 Sm: 0 	 T: memcpy_h2d(10.913572)
F:  2945386----T:  2969058 	 St: c0430000 Sz: 196608 	 Sm: 0 	 T: memcpy_h2d(15.983795)
F:  2969058----T:  3007777 	 St: c0470000 Sz: 327680 	 Sm: 0 	 T: memcpy_h2d(26.143822)
F:  3008945----T:  3015357 	 St: c04d0000 Sz: 45056 	 Sm: 0 	 T: memcpy_h2d(4.329507)
F:  3015357----T:  3019169 	 St: c04db000 Sz: 20480 	 Sm: 0 	 T: memcpy_h2d(2.573936)
F:  3019169----T:  3040962 	 St: c04e0000 Sz: 180224 	 Sm: 0 	 T: memcpy_h2d(14.715057)
F:  3040962----T:  3051518 	 St: c050c000 Sz: 81920 	 Sm: 0 	 T: memcpy_h2d(7.127616)
F:  3051518----T:  3060682 	 St: c0540000 Sz: 69632 	 Sm: 0 	 T: memcpy_h2d(6.187711)
F:  3060682----T:  3113988 	 St: c0551000 Sz: 454656 	 Sm: 0 	 T: memcpy_h2d(35.993248)
F:  3113988----T:  3137660 	 St: c05d0000 Sz: 196608 	 Sm: 0 	 T: memcpy_h2d(15.983795)
F:  3137660----T:  3221560 	 St: c0610000 Sz: 720896 	 Sm: 0 	 T: memcpy_h2d(56.650913)
F:  3222843----T:  3225448 	 St: c06c0000 Sz: 4096 	 Sm: 0 	 T: memcpy_h2d(1.758947)
F:  3225448----T:  3241143 	 St: c06c1000 Sz: 126976 	 Sm: 0 	 T: memcpy_h2d(10.597569)
F:  3241143----T:  3249845 	 St: c0700000 Sz: 65536 	 Sm: 0 	 T: memcpy_h2d(5.875760)
F:  3249845----T:  3266008 	 St: c0720000 Sz: 131072 	 Sm: 0 	 T: memcpy_h2d(10.913572)
F:  3266008----T:  3268808 	 St: c0740000 Sz: 8192 	 Sm: 0 	 T: memcpy_h2d(1.890614)
F:  3268808----T:  3329173 	 St: c0742000 Sz: 516096 	 Sm: 0 	 T: memcpy_h2d(40.759621)
F:  3329173----T:  3420605 	 St: c07e0000 Sz: 786432 	 Sm: 0 	 T: memcpy_h2d(61.736664)
F:  3420605----T:  3429307 	 St: c08b0000 Sz: 65536 	 Sm: 0 	 T: memcpy_h2d(5.875760)
F:  3661056----T:  3668854 	 	 	 Kl: 10 	 Sm: 0 	 T: kernel_launch(5.265361)
F:  3668854----T:  3671389 	 St: 80000000 Sz: 1 	 Sm: 0 	 T: memcpy_d2h(1.711681)
F:  3671390----T:  3673925 	 St: 80000000 Sz: 1 	 Sm: 0 	 T: memcpy_h2d(1.711681)
F:  3896076----T:  3935440 	 	 	 Kl: 11 	 Sm: 0 	 T: kernel_launch(26.579338)
F:  4157590----T:  4172357 	 	 	 Kl: 12 	 Sm: 0 	 T: kernel_launch(9.970965)
F:  4172357----T:  4174892 	 St: 80000000 Sz: 1 	 Sm: 0 	 T: memcpy_d2h(1.711681)
F:  4174893----T:  4177428 	 St: 80000000 Sz: 1 	 Sm: 0 	 T: memcpy_h2d(1.711681)
F:  4399579----T:  4526781 	 	 	 Kl: 13 	 Sm: 0 	 T: kernel_launch(85.889267)
F:  4748931----T:  4764208 	 	 	 Kl: 14 	 Sm: 0 	 T: kernel_launch(10.315328)
F:  4764208----T:  4766743 	 St: 80000000 Sz: 1 	 Sm: 0 	 T: memcpy_d2h(1.711681)
F:  4766744----T:  4769279 	 St: 80000000 Sz: 1 	 Sm: 0 	 T: memcpy_h2d(1.711681)
F:  4991430----T:  5295688 	 	 	 Kl: 15 	 Sm: 0 	 T: kernel_launch(205.440918)
F:  5517838----T:  5532956 	 	 	 Kl: 16 	 Sm: 0 	 T: kernel_launch(10.207968)
F:  5532956----T:  5535491 	 St: 80000000 Sz: 1 	 Sm: 0 	 T: memcpy_d2h(1.711681)
F:  5535492----T:  5538027 	 St: 80000000 Sz: 1 	 Sm: 0 	 T: memcpy_h2d(1.711681)
F:  5760178----T:  5948502 	 	 	 Kl: 17 	 Sm: 0 	 T: kernel_launch(127.160027)
F:  6170652----T:  6180959 	 	 	 Kl: 18 	 Sm: 0 	 T: kernel_launch(6.959487)
F:  6180959----T:  6183494 	 St: 80000000 Sz: 1 	 Sm: 0 	 T: memcpy_d2h(1.711681)
F:  6183495----T:  6186030 	 St: 80000000 Sz: 1 	 Sm: 0 	 T: memcpy_h2d(1.711681)
F:  6408181----T:  6428043 	 	 	 Kl: 19 	 Sm: 0 	 T: kernel_launch(13.411209)
F:  6650193----T:  6653441 	 	 	 Kl: 20 	 Sm: 0 	 T: kernel_launch(2.193113)
F:  6653441----T:  6655976 	 St: 80000000 Sz: 1 	 Sm: 0 	 T: memcpy_d2h(1.711681)
F:  6655977----T:  6658512 	 St: 80000000 Sz: 1 	 Sm: 0 	 T: memcpy_h2d(1.711681)
F:  6880663----T:  6885774 	 	 	 Kl: 21 	 Sm: 0 	 T: kernel_launch(3.451047)
F:  7107924----T:  7111092 	 	 	 Kl: 22 	 Sm: 0 	 T: kernel_launch(2.139095)
F:  7111092----T:  7113627 	 St: 80000000 Sz: 1 	 Sm: 0 	 T: memcpy_d2h(1.711681)
F:  7113628----T:  7116233 	 St: 0 Sz: 4096 	 Sm: 0 	 T: device_sync(1.758947)
F:  7113628----T:  7121868 	 St: 0 Sz: 61440 	 Sm: 0 	 T: device_sync(5.563808)
F:  7124473----T:  7127078 	 St: 0 Sz: 4096 	 Sm: 0 	 T: device_sync(1.758947)
F:  7124473----T:  7132713 	 St: 0 Sz: 61440 	 Sm: 0 	 T: device_sync(5.563808)
F:  7135318----T:  7137923 	 St: 0 Sz: 4096 	 Sm: 0 	 T: device_sync(1.758947)
F:  7135318----T:  7151013 	 St: 0 Sz: 126976 	 Sm: 0 	 T: device_sync(10.597569)
F:  7153618----T:  7156223 	 St: 0 Sz: 4096 	 Sm: 0 	 T: device_sync(1.758947)
F:  7153618----T:  7184341 	 St: 0 Sz: 258048 	 Sm: 0 	 T: device_sync(20.744766)
F:  7186946----T:  7189551 	 St: 0 Sz: 4096 	 Sm: 0 	 T: device_sync(1.758947)
F:  7186946----T:  7247782 	 St: 0 Sz: 520192 	 Sm: 0 	 T: device_sync(41.077652)
F:  7250387----T:  7252992 	 St: 0 Sz: 4096 	 Sm: 0 	 T: device_sync(1.758947)
F:  7250387----T:  7341348 	 St: 0 Sz: 782336 	 Sm: 0 	 T: device_sync(61.418636)
Tot_prefetch_time: 0(cycle), 0.000000(us)
Tot_kernel_exec_time: 2170537(cycle), 1465.588745(us)
Tot_kernel_exec_time_and_fault_time: 5369497(cycle), 3625.588867(us)
Tot_memcpy_h2d_time: 1348549(cycle), 910.566528(us)
Tot_memcpy_d2h_time: 27885(cycle), 18.828495(us)
Tot_memcpy_time: 1376434(cycle), 929.395020(us)
Tot_devicesync_time: 230325(cycle), 155.519913(us)
Tot_writeback_time: 0(cycle), 0.000000(us)
Tot_dma_time: 41800(cycle), 28.224173(us)
Tot_memcpy_d2h_sync_wb_time: 258210(cycle), 174.348419(us)
GPGPU-Sim: *** exit detected ***
