

        *** GPGPU-Sim Simulator Version 3.2.2  [build gpgpu-sim_git-commit-c8c883f82f149f8a735f810bff4b4328d99c95c2_modified_0] ***


GPGPU-Sim PTX: simulation mode 0 (can change with PTX_SIM_MODE_FUNC environment variable:
               1=functional simulation only, 0=detailed performance simulator)
GPGPU-Sim: Configuration options:

-network_mode                           1 # Interconnection network mode
-inter_config_file   config_fermi_islip.icnt # Interconnection network config file
-gpgpu_ptx_use_cuobjdump                    1 # Use cuobjdump to extract ptx and sass from binaries
-gpgpu_experimental_lib_support                    0 # Try to extract code from cuda libraries [Broken because of unknown cudaGetExportTable]
-gpgpu_ptx_convert_to_ptxplus                    0 # Convert SASS (native ISA) to ptxplus and run ptxplus
-gpgpu_ptx_force_max_capability                   20 # Force maximum compute capability
-gpgpu_ptx_inst_debug_to_file                    0 # Dump executed instructions' debug information to file
-gpgpu_ptx_inst_debug_file       inst_debug.txt # Executed instructions' debug output file
-gpgpu_ptx_inst_debug_thread_uid                    1 # Thread UID for executed instructions' debug output
-gpgpu_simd_model                       1 # 1 = post-dominator
-gpgpu_shader_core_pipeline              2048:32 # shader core pipeline config, i.e., {<nthread>:<warpsize>}
-gpgpu_tex_cache:l1  16:128:24,L:R:m:N:L,F:128:4,128:2 # per-shader L1 texture cache  (READ-ONLY) config  {<nsets>:<bsize>:<assoc>,<rep>:<wr>:<alloc>:<wr_alloc>,<mshr>:<N>:<merge>,<mq>:<rf>}
-gpgpu_const_cache:l1 128:64:2,L:R:f:N:L,A:2:64,4 # per-shader L1 constant memory cache  (READ-ONLY) config  {<nsets>:<bsize>:<assoc>,<rep>:<wr>:<alloc>:<wr_alloc>,<mshr>:<N>:<merge>,<mq>} 
-gpgpu_cache:il1     8:128:4,L:R:f:N:L,A:2:48,4 # shader L1 instruction cache config  {<nsets>:<bsize>:<assoc>,<rep>:<wr>:<alloc>:<wr_alloc>,<mshr>:<N>:<merge>,<mq>} 
-gpgpu_cache:dl1     64:128:6,L:L:m:N:H,A:128:8,8 # per-shader L1 data cache config  {<nsets>:<bsize>:<assoc>,<rep>:<wr>:<alloc>:<wr_alloc>,<mshr>:<N>:<merge>,<mq> | none}
-gpgpu_cache:dl1PrefL1                 none # per-shader L1 data cache config  {<nsets>:<bsize>:<assoc>,<rep>:<wr>:<alloc>:<wr_alloc>,<mshr>:<N>:<merge>,<mq> | none}
-gpgpu_cache:dl1PrefShared                 none # per-shader L1 data cache config  {<nsets>:<bsize>:<assoc>,<rep>:<wr>:<alloc>:<wr_alloc>,<mshr>:<N>:<merge>,<mq> | none}
-gmem_skip_L1D                          1 # global memory access skip L1D cache (implements -Xptxas -dlcm=cg, default=no skip)
-gpgpu_perfect_mem                      0 # enable perfect memory mode (no cache miss)
-n_regfile_gating_group                    4 # group of lanes that should be read/written together)
-gpgpu_clock_gated_reg_file                    0 # enable clock gated reg file for power calculations
-gpgpu_clock_gated_lanes                    0 # enable clock gated lanes for power calculations
-gpgpu_shader_registers                65536 # Number of registers per shader core. Limits number of concurrent CTAs. (default 8192)
-gpgpu_shader_cta                      32 # Maximum number of concurrent CTAs in shader (default 8)
-gpgpu_num_cta_barriers                   16 # Maximum number of named barriers per CTA (default 16)
-gpgpu_n_clusters                      28 # number of processing clusters
-gpgpu_n_cores_per_cluster                    1 # number of simd cores per cluster
-gpgpu_n_cluster_ejection_buffer_size                    8 # number of packets in ejection buffer
-gpgpu_n_ldst_response_buffer_size                    2 # number of response packets in ld/st unit ejection buffer
-gpgpu_shmem_size                   16384 # Size of shared memory per shader core (default 16kB)
-gpgpu_shmem_size                   98304 # Size of shared memory per shader core (default 16kB)
-gpgpu_shmem_size_PrefL1                16384 # Size of shared memory per shader core (default 16kB)
-gpgpu_shmem_size_PrefShared                16384 # Size of shared memory per shader core (default 16kB)
-gpgpu_shmem_num_banks                   32 # Number of banks in the shared memory in each shader core (default 16)
-gpgpu_shmem_limited_broadcast                    0 # Limit shared memory to do one broadcast per cycle (default on)
-gpgpu_shmem_warp_parts                    1 # Number of portions a warp is divided into for shared memory bank conflict check 
-gpgpu_warpdistro_shader                   -1 # Specify which shader core to collect the warp size distribution from
-gpgpu_warp_issue_shader                    0 # Specify which shader core to collect the warp issue distribution from
-gpgpu_local_mem_map                    1 # Mapping from local memory space address to simulated GPU physical address space (default = enabled)
-gpgpu_num_reg_banks                   32 # Number of register banks (default = 8)
-gpgpu_reg_bank_use_warp_id                    0 # Use warp ID in mapping registers to banks (default = off)
-gpgpu_operand_collector_num_units_sp                   20 # number of collector units (default = 4)
-gpgpu_operand_collector_num_units_sfu                    4 # number of collector units (default = 4)
-gpgpu_operand_collector_num_units_mem                    8 # number of collector units (default = 2)
-gpgpu_operand_collector_num_units_gen                    0 # number of collector units (default = 0)
-gpgpu_operand_collector_num_in_ports_sp                    4 # number of collector unit in ports (default = 1)
-gpgpu_operand_collector_num_in_ports_sfu                    1 # number of collector unit in ports (default = 1)
-gpgpu_operand_collector_num_in_ports_mem                    1 # number of collector unit in ports (default = 1)
-gpgpu_operand_collector_num_in_ports_gen                    0 # number of collector unit in ports (default = 0)
-gpgpu_operand_collector_num_out_ports_sp                    4 # number of collector unit in ports (default = 1)
-gpgpu_operand_collector_num_out_ports_sfu                    1 # number of collector unit in ports (default = 1)
-gpgpu_operand_collector_num_out_ports_mem                    1 # number of collector unit in ports (default = 1)
-gpgpu_operand_collector_num_out_ports_gen                    0 # number of collector unit in ports (default = 0)
-gpgpu_coalesce_arch                   13 # Coalescing arch (default = 13, anything else is off for now)
-gpgpu_num_sched_per_core                    2 # Number of warp schedulers per core
-gpgpu_max_insn_issue_per_warp                    2 # Max number of instructions that can be issued per warp in one cycle by scheduler
-gpgpu_simt_core_sim_order                    1 # Select the simulation order of cores in a cluster (0=Fix, 1=Round-Robin)
-gpgpu_pipeline_widths        4,1,1,4,1,1,6 # Pipeline widths ID_OC_SP,ID_OC_SFU,ID_OC_MEM,OC_EX_SP,OC_EX_SFU,OC_EX_MEM,EX_WB
-gpgpu_num_sp_units                     4 # Number of SP units (default=1)
-gpgpu_num_sfu_units                    1 # Number of SF units (default=1)
-gpgpu_num_mem_units                    1 # Number if ldst units (default=1) WARNING: not hooked up to anything
-gpgpu_scheduler                      gto # Scheduler configuration: < lrr | gto | two_level_active > If two_level_active:<num_active_warps>:<inner_prioritization>:<outer_prioritization>For complete list of prioritization values see shader.h enum scheduler_prioritization_typeDefault: gto
-gpgpu_concurrent_kernel_sm                    0 # Support concurrent kernels on a SM (default = disabled)
-tlb_size                            4096 # Number of tlb entries per SM.
-gpgpu_dram_scheduler                    1 # 0 = fifo, 1 = FR-FCFS (defaul)
-gpgpu_dram_partition_queues              8:8:8:8 # i2$:$2d:d2$:$2i
-l2_ideal                               0 # Use a ideal L2 cache that always hit
-gpgpu_cache:dl2     64:128:16,L:B:m:W:L,A:1024:1024,4:0,32 # unified banked L2 data cache config  {<nsets>:<bsize>:<assoc>,<rep>:<wr>:<alloc>:<wr_alloc>,<mshr>:<N>:<merge>,<mq>}
-gpgpu_cache:dl2_texture_only                    0 # L2 cache used for texture only
-gpgpu_n_mem                           11 # number of memory modules (e.g. memory controllers) in gpu
-gpgpu_n_sub_partition_per_mchannel                    2 # number of memory subpartition in each memory module
-gpgpu_n_mem_per_ctrlr                    1 # number of memory chips per memory controller
-gpgpu_memlatency_stat                   14 # track and display latency statistics 0x2 enables MC, 0x4 enables queue logs
-gpgpu_frfcfs_dram_sched_queue_size                   64 # 0 = unlimited (default); # entries per chip
-gpgpu_dram_return_queue_size                  116 # 0 = unlimited (default); # entries per chip
-gpgpu_dram_buswidth                    4 # default = 4 bytes (8 bytes per cycle at DDR)
-gpgpu_dram_burst_length                    8 # Burst length of each DRAM request (default = 4 data bus cycle)
-dram_data_command_freq_ratio                    4 # Frequency ratio between DRAM data bus and command bus (default = 2 times, i.e. DDR)
-gpgpu_dram_timing_opt nbk=16:CCD=2:RRD=6:RCD=12:RAS=28:RP=12:RC=40: CL=12:WL=4:CDLR=5:WR=12:nbkgrp=1:CCDL=0:RTPL=0 # DRAM timing parameters = {nbk:tCCD:tRRD:tRCD:tRAS:tRP:tRC:CL:WL:tCDLR:tWR:nbkgrp:tCCDL:tRTPL}
-rop_latency                          120 # ROP queue latency (default 85)
-dram_latency                         100 # DRAM latency (default 30)
-gpgpu_mem_addr_mapping dramid@8;00000000.00000000.00000000.00000000.0000RRRR.RRRRRRRR.RBBBCCCC.BCCSSSSS # mapping memory address to dram model {dramid@<start bit>;<memory address map>}
-gpgpu_mem_addr_test                    0 # run sweep test to check address mapping for aliased address
-gpgpu_mem_address_mask                    1 # 0 = old addressing mask, 1 = new addressing mask, 2 = new add. mask + flipped bank sel and chip sel bits
-gpuwattch_xml_file  gpuwattch_geforcegtx1080ti.xml # GPUWattch XML file
-power_simulation_enabled                    1 # Turn on power simulator (1=On, 0=Off)
-power_per_cycle_dump                    0 # Dump detailed power output each cycle
-power_trace_enabled                    0 # produce a file for the power trace (1=On, 0=Off)
-power_trace_zlevel                     6 # Compression level of the power trace output log (0=no comp, 9=highest)
-steady_power_levels_enabled                    0 # produce a file for the steady power levels (1=On, 0=Off)
-steady_state_definition                  8:4 # allowed deviation:number of samples
-gpgpu_max_cycle                        0 # terminates gpu simulation early (0 = no limit)
-gpgpu_max_insn                         0 # terminates gpu simulation early (0 = no limit)
-gpgpu_max_cta                          0 # terminates gpu simulation early (0 = no limit)
-gpgpu_runtime_stat                   500 # display runtime statistics such as dram utilization {<freq>:<flag>}
-liveness_message_freq                    1 # Minimum number of seconds between simulation liveness messages (0 = always print)
-gpgpu_flush_l1_cache                    0 # Flush L1 cache at the end of each kernel call
-gpgpu_flush_l2_cache                    0 # Flush L2 cache at the end of each kernel call
-gpgpu_deadlock_detect                    0 # Stop the simulation at deadlock (1=on (default), 0=off)
-gpgpu_ptx_instruction_classification                    0 # if enabled will classify ptx instruction types per kernel (Max 255 kernels now)
-gpgpu_ptx_sim_mode                     0 # Select between Performance (default) or Functional simulation (1)
-gpgpu_clock_domains 1481.0:2962.0:1481.0:2750.0 # Clock Domain Frequencies in MhZ {<Core Clock>:<ICNT Clock>:<L2 Clock>:<DRAM Clock>}
-gpgpu_max_concurrent_kernel                    8 # maximum kernels that can run concurrently on GPU
-gpgpu_cflog_interval                    0 # Interval between each snapshot in control flow logger
-visualizer_enabled                     0 # Turn on visualizer output (1=On, 0=Off)
-visualizer_outputfile                 NULL # Specifies the output log file for visualizer
-visualizer_zlevel                      6 # Compression level of the visualizer output log (0=no comp, 9=highest)
-trace_enabled                          0 # Turn on traces
-trace_components                    none # comma seperated list of traces to enable. Complete list found in trace_streams.tup. Default none
-trace_sampling_core                    0 # The core which is printed using CORE_DPRINTF. Default 0
-trace_sampling_memory_partition                   -1 # The memory partition which is printed using MEMPART_DPRINTF. Default -1 (i.e. all)
-gddr_size                            1GB # Size of GDDR in MB/GB.(GLOBAL_HEAP_START, GLOBAL_HEAP_START + gddr_size) would be used for unmanged memory, (GLOBAL_HEAP_START + gddr_size, GLOBAL_HEAP_START + gddr_size*2) would be used for managed memory. 
-page_table_walk_latency                  100 # Average page table walk latency (in core cycle).
-eviction_policy                        0 # Select page eviction policy
-invalidate_clean                       0 # Should directly invalidate clean pages
-reserve_accessed_page_percent                    0 # Percentage of accessed pages reserved from eviction in hope that they will be accessed in next iteration.
-percentage_of_free_page_buffer                    0 # Percentage of free page buffer to trigger the page eviction.
-page_size                            4KB # GDDR page size, only 4KB/2MB avaliable.
-pcie_bandwidth                  16.0GB/s # PCI-e bandwidth per direction, in GB/s.
-enable_dma                             2 # Enable direct access to CPU memory
-multiply_dma_penalty                    2 # Oversubscription Multiplicative Penalty Factor for Adaptive DMA
-migrate_threshold                      8 # Access counter threshold for migrating the page from cpu to gpu
-sim_prof_enable                        1 # Enable gpgpu-sim profiler
-hardware_prefetch                      1 # Select gpgpu-sim hardware prefetcher
-hwprefetch_oversub                     1 # Select gpgpu-sim hardware prefetcher under over-subscription
-page_fault_latency                 66645 # Average fault latency (in core cycle).
-enable_accurate_simulation                    0 # Enable page fault functional simulation.
-enable_ptx_file_line_stats                    1 # Turn on PTX source line statistic profiling. (1 = On)
-ptx_line_stats_filename gpgpu_inst_stats.txt # Output file for PTX source line statistics.
-gpgpu_kernel_launch_latency               222150 # Kernel launch latency in cycles. Default: 0
-gpgpu_cdp_enabled                      0 # Turn on CDP
-save_embedded_ptx                      0 # saves ptx files embedded in binary as <n>.ptx
-keep                                   0 # keep intermediate files created by GPGPU-Sim when interfacing with external programs
-gpgpu_ptx_save_converted_ptxplus                    0 # Saved converted ptxplus to a file
-ptx_opcode_latency_int         4,13,4,5,145 # Opcode latencies for integers <ADD,MAX,MUL,MAD,DIV>Default 1,1,19,25,145
-ptx_opcode_latency_fp          4,13,4,5,39 # Opcode latencies for single precision floating points <ADD,MAX,MUL,MAD,DIV>Default 1,1,1,1,30
-ptx_opcode_latency_dp         8,19,8,8,330 # Opcode latencies for double precision floating points <ADD,MAX,MUL,MAD,DIV>Default 8,8,8,8,335
-ptx_opcode_initiation_int            1,2,2,2,8 # Opcode initiation intervals for integers <ADD,MAX,MUL,MAD,DIV>Default 1,1,4,4,32
-ptx_opcode_initiation_fp            1,2,1,1,4 # Opcode initiation intervals for single precision floating points <ADD,MAX,MUL,MAD,DIV>Default 1,1,1,1,5
-ptx_opcode_initiation_dp          1,2,1,1,130 # Opcode initiation intervals for double precision floating points <ADD,MAX,MUL,MAD,DIV>Default 8,8,8,8,130
-cdp_latency         7200,8000,100,12000,1600 # CDP API latency <cudaStreamCreateWithFlags, cudaGetParameterBufferV2_init_perWarp, cudaGetParameterBufferV2_perKernel, cudaLaunchDeviceV2_init_perWarp, cudaLaunchDevicV2_perKernel>Default 7200,8000,100,12000,1600
DRAM Timing Options:
nbk                                    16 # number of banks
CCD                                     2 # column to column delay
RRD                                     6 # minimal delay between activation of rows in different banks
RCD                                    12 # row to column delay
RAS                                    28 # time needed to activate row
RP                                     12 # time needed to precharge (deactivate) row
RC                                     40 # row cycle time
CDLR                                    5 # switching from write to read (changes tWTR)
WR                                     12 # last data-in to row precharge
CL                                     12 # CAS latency
WL                                      4 # Write latency
nbkgrp                                  1 # number of bank groups
CCDL                                    0 # column to column delay between accesses to different bank groups
RTPL                                    0 # read to precharge delay between accesses to different bank groups
Total number of memory sub partition = 22
addr_dec_mask[CHIP]  = 0000000000000000 	high:64 low:0
addr_dec_mask[BK]    = 0000000000007080 	high:15 low:7
addr_dec_mask[ROW]   = 000000000fff8000 	high:28 low:15
addr_dec_mask[COL]   = 0000000000000f7f 	high:12 low:0
addr_dec_mask[BURST] = 000000000000001f 	high:5 low:0
sub_partition_id_mask = 0000000000000080
GPGPU-Sim uArch: clock freqs: 1481000000.000000:2962000000.000000:1481000000.000000:2750000000.000000
GPGPU-Sim uArch: clock periods: 0.00000000067521944632:0.00000000033760972316:0.00000000067521944632:0.00000000036363636364
*** Initializing Memory Statistics ***
GPGPU-Sim uArch: interconnect node map (shaderID+MemID to icntID)
GPGPU-Sim uArch: Memory nodes ID start from index: 28
GPGPU-Sim uArch:    0   1   2   3   4   5   6
GPGPU-Sim uArch:    7   8   9  10  11  12  13
GPGPU-Sim uArch:   14  15  16  17  18  19  20
GPGPU-Sim uArch:   21  22  23  24  25  26  27
GPGPU-Sim uArch:   28  29  30  31  32  33  34
GPGPU-Sim uArch:   35  36  37  38  39  40  41
GPGPU-Sim uArch:   42  43  44  45  46  47  48
GPGPU-Sim uArch:   49
GPGPU-Sim uArch: interconnect node reverse map (icntID to shaderID+MemID)
GPGPU-Sim uArch: Memory nodes start from ID: 28
GPGPU-Sim uArch:    0   1   2   3   4   5   6
GPGPU-Sim uArch:    7   8   9  10  11  12  13
GPGPU-Sim uArch:   14  15  16  17  18  19  20
GPGPU-Sim uArch:   21  22  23  24  25  26  27
GPGPU-Sim uArch:   28  29  30  31  32  33  34
GPGPU-Sim uArch:   35  36  37  38  39  40  41
GPGPU-Sim uArch:   42  43  44  45  46  47  48
GPGPU-Sim uArch:   49
cf5745cf1abd2a064bd21dd8114faea6  /root/gpgpu-sim_UVMSmart/benchmarks/Managed/FDTD-2D/main
GPGPU-Sim uArch: performance model initialization complete.
GPGPU-Sim PTX: __cudaRegisterFatBinary, fat_cubin_handle = 1, filename=default
self exe links to: /root/gpgpu-sim_UVMSmart/benchmarks/Managed/FDTD-2D/main
Running md5sum using "md5sum /root/gpgpu-sim_UVMSmart/benchmarks/Managed/FDTD-2D/main "
Parsing file _cuobjdump_complete_output_4Gr4Ve
######### cuobjdump parser ########
## Adding new section ELF
Adding arch: sm_20
Adding identifier: default
## Adding new section ELF
Adding arch: sm_20
Adding identifier: default
## Adding new section PTX
Adding ptx filename: _cuobjdump_1.ptx
Adding arch: sm_20
Adding identifier: default
Done parsing!!!
GPGPU-Sim PTX: __cudaRegisterFunction _Z17fdtd_step3_kernelPfS_S_i : hostFun 0x0x401766, fat_cubin_handle = 1
GPGPU-Sim PTX: instruction assembly for function '_Z17fdtd_step1_kernelPfS_S_S_i'...   done.
GPGPU-Sim PTX: finding reconvergence points for '_Z17fdtd_step1_kernelPfS_S_S_i'...
GPGPU-Sim PTX: Finding dominators for '_Z17fdtd_step1_kernelPfS_S_S_i'...
GPGPU-Sim PTX: Finding immediate dominators for '_Z17fdtd_step1_kernelPfS_S_S_i'...
GPGPU-Sim PTX: Finding postdominators for '_Z17fdtd_step1_kernelPfS_S_S_i'...
GPGPU-Sim PTX: Finding immediate postdominators for '_Z17fdtd_step1_kernelPfS_S_S_i'...
GPGPU-Sim PTX: pre-decoding instructions for '_Z17fdtd_step1_kernelPfS_S_S_i'...
GPGPU-Sim PTX: reconvergence points for _Z17fdtd_step1_kernelPfS_S_S_i...
GPGPU-Sim PTX:  1 (potential) branch divergence @  PC=0x080 (_1.ptx:44) @!%p3 bra BB0_4;
GPGPU-Sim PTX:    immediate post dominator      @  PC=0x150 (_1.ptx:77) ret;
GPGPU-Sim PTX:  2 (potential) branch divergence @  PC=0x088 (_1.ptx:45) bra.uni BB0_1;
GPGPU-Sim PTX:    immediate post dominator      @  PC=0x090 (_1.ptx:48) setp.eq.s32%p4, %r2, 0;
GPGPU-Sim PTX:  3 (potential) branch divergence @  PC=0x098 (_1.ptx:49) @%p4 bra BB0_3;
GPGPU-Sim PTX:    immediate post dominator      @  PC=0x150 (_1.ptx:77) ret;
GPGPU-Sim PTX:  4 (potential) branch divergence @  PC=0x110 (_1.ptx:65) bra.uni BB0_4;
GPGPU-Sim PTX:    immediate post dominator      @  PC=0x150 (_1.ptx:77) ret;
GPGPU-Sim PTX: ... end of reconvergence points for _Z17fdtd_step1_kernelPfS_S_S_i
GPGPU-Sim PTX: ... done pre-decoding instructions for '_Z17fdtd_step1_kernelPfS_S_S_i'.
GPGPU-Sim PTX: instruction assembly for function '_Z17fdtd_step2_kernelPfS_S_i'...   done.
GPGPU-Sim PTX: finding reconvergence points for '_Z17fdtd_step2_kernelPfS_S_i'...
GPGPU-Sim PTX: Finding dominators for '_Z17fdtd_step2_kernelPfS_S_i'...
GPGPU-Sim PTX: Finding immediate dominators for '_Z17fdtd_step2_kernelPfS_S_i'...
GPGPU-Sim PTX: Finding postdominators for '_Z17fdtd_step2_kernelPfS_S_i'...
GPGPU-Sim PTX: Finding immediate postdominators for '_Z17fdtd_step2_kernelPfS_S_i'...
GPGPU-Sim PTX: pre-decoding instructions for '_Z17fdtd_step2_kernelPfS_S_i'...
GPGPU-Sim PTX: reconvergence points for _Z17fdtd_step2_kernelPfS_S_i...
GPGPU-Sim PTX:  1 (potential) branch divergence @  PC=0x1d0 (_1.ptx:109) @!%p5 bra BB1_2;
GPGPU-Sim PTX:    immediate post dominator      @  PC=0x268 (_1.ptx:132) ret;
GPGPU-Sim PTX:  2 (potential) branch divergence @  PC=0x1d8 (_1.ptx:110) bra.uni BB1_1;
GPGPU-Sim PTX:    immediate post dominator      @  PC=0x1e0 (_1.ptx:113) cvta.to.global.u64 %rd3, %rd2;
GPGPU-Sim PTX: ... end of reconvergence points for _Z17fdtd_step2_kernelPfS_S_i
GPGPU-Sim PTX: ... done pre-decoding instructions for '_Z17fdtd_step2_kernelPfS_S_i'.
GPGPU-Sim PTX: instruction assembly for function '_Z17fdtd_step3_kernelPfS_S_i'...   done.
GPGPU-Sim PTX: finding reconvergence points for '_Z17fdtd_step3_kernelPfS_S_i'...
GPGPU-Sim PTX: Finding dominators for '_Z17fdtd_step3_kernelPfS_S_i'...
GPGPU-Sim PTX: Finding immediate dominators for '_Z17fdtd_step3_kernelPfS_S_i'...
GPGPU-Sim PTX: Finding postdominators for '_Z17fdtd_step3_kernelPfS_S_i'...
GPGPU-Sim PTX: Finding immediate postdominators for '_Z17fdtd_step3_kernelPfS_S_i'...
GPGPU-Sim PTX: pre-decoding instructions for '_Z17fdtd_step3_kernelPfS_S_i'...
GPGPU-Sim PTX: reconvergence points for _Z17fdtd_step3_kernelPfS_S_i...
GPGPU-Sim PTX:  1 (potential) branch divergence @  PC=0x2e0 (_1.ptx:163) @!%p3 bra BB2_2;
GPGPU-Sim PTX:    immediate post dominator      @  PC=0x390 (_1.ptx:189) ret;
GPGPU-Sim PTX:  2 (potential) branch divergence @  PC=0x2e8 (_1.ptx:164) bra.uni BB2_1;
GPGPU-Sim PTX:    immediate post dominator      @  PC=0x2f0 (_1.ptx:167) cvta.to.global.u64 %rd4, %rd2;
GPGPU-Sim PTX: ... end of reconvergence points for _Z17fdtd_step3_kernelPfS_S_i
GPGPU-Sim PTX: ... done pre-decoding instructions for '_Z17fdtd_step3_kernelPfS_S_i'.
GPGPU-Sim PTX: finished parsing EMBEDDED .ptx file _1.ptx
Adding _cuobjdump_1.ptx with cubin handle 1
GPGPU-Sim PTX: extracting embedded .ptx to temporary file "_ptx_ZjAHum"
Running: cat _ptx_ZjAHum | sed 's/.version 1.5/.version 1.4/' | sed 's/, texmode_independent//' | sed 's/\(\.extern \.const\[1\] .b8 \w\+\)\[\]/\1\[1\]/' | sed 's/const\[.\]/const\[0\]/g' > _ptx2_cVBl3t
GPGPU-Sim PTX: generating ptxinfo using "$CUDA_INSTALL_PATH/bin/ptxas --gpu-name=sm_20 -v _ptx2_cVBl3t --output-file  /dev/null 2> _ptx_ZjAHuminfo"
GPGPU-Sim PTX: Kernel '_Z17fdtd_step2_kernelPfS_S_i' : regs=10, lmem=0, smem=0, cmem=60
GPGPU-Sim PTX: Kernel '_Z17fdtd_step1_kernelPfS_S_S_i' : regs=10, lmem=0, smem=0, cmem=68
GPGPU-Sim PTX: Kernel '_Z17fdtd_step3_kernelPfS_S_i' : regs=12, lmem=0, smem=0, cmem=64
GPGPU-Sim PTX: removing ptxinfo using "rm -f _ptx_ZjAHum _ptx2_cVBl3t _ptx_ZjAHuminfo"
GPGPU-Sim PTX: loading globals with explicit initializers... 
GPGPU-Sim PTX: finished loading globals (0 bytes total).
GPGPU-Sim PTX: loading constants with explicit initializers...  done.
GPGPU-Sim PTX: __cudaRegisterFunction _Z17fdtd_step2_kernelPfS_S_i : hostFun 0x0x40167f, fat_cubin_handle = 1
GPGPU-Sim PTX: __cudaRegisterFunction _Z17fdtd_step1_kernelPfS_S_S_i : hostFun 0x0x40158c, fat_cubin_handle = 1

GPGPU-Sim PTX: cudaLaunch for 0x0x40158c (mode=performance simulation) on stream 0
GPGPU-Sim PTX: pushing kernel '_Z17fdtd_step1_kernelPfS_S_S_i' to stream 0, gridDim= (38,150,1) blockDim = (32,8,1) 
GPGPU-Sim uArch: Shader 1 bind to kernel 1 '_Z17fdtd_step1_kernelPfS_S_S_i'
GPGPU-Sim uArch: CTA/core = 8, limited by: threads
GPGPU-Sim uArch: Shader 2 bind to kernel 1 '_Z17fdtd_step1_kernelPfS_S_S_i'
GPGPU-Sim uArch: Shader 3 bind to kernel 1 '_Z17fdtd_step1_kernelPfS_S_S_i'
GPGPU-Sim uArch: Shader 4 bind to kernel 1 '_Z17fdtd_step1_kernelPfS_S_S_i'
GPGPU-Sim uArch: Shader 5 bind to kernel 1 '_Z17fdtd_step1_kernelPfS_S_S_i'
GPGPU-Sim uArch: Shader 6 bind to kernel 1 '_Z17fdtd_step1_kernelPfS_S_S_i'
GPGPU-Sim uArch: Shader 7 bind to kernel 1 '_Z17fdtd_step1_kernelPfS_S_S_i'
GPGPU-Sim uArch: Shader 8 bind to kernel 1 '_Z17fdtd_step1_kernelPfS_S_S_i'
GPGPU-Sim uArch: Shader 9 bind to kernel 1 '_Z17fdtd_step1_kernelPfS_S_S_i'
GPGPU-Sim uArch: Shader 10 bind to kernel 1 '_Z17fdtd_step1_kernelPfS_S_S_i'
GPGPU-Sim uArch: Shader 11 bind to kernel 1 '_Z17fdtd_step1_kernelPfS_S_S_i'
GPGPU-Sim uArch: Shader 12 bind to kernel 1 '_Z17fdtd_step1_kernelPfS_S_S_i'
GPGPU-Sim uArch: Shader 13 bind to kernel 1 '_Z17fdtd_step1_kernelPfS_S_S_i'
GPGPU-Sim uArch: Shader 14 bind to kernel 1 '_Z17fdtd_step1_kernelPfS_S_S_i'
GPGPU-Sim uArch: Shader 15 bind to kernel 1 '_Z17fdtd_step1_kernelPfS_S_S_i'
GPGPU-Sim uArch: Shader 16 bind to kernel 1 '_Z17fdtd_step1_kernelPfS_S_S_i'
GPGPU-Sim uArch: Shader 17 bind to kernel 1 '_Z17fdtd_step1_kernelPfS_S_S_i'
GPGPU-Sim uArch: Shader 18 bind to kernel 1 '_Z17fdtd_step1_kernelPfS_S_S_i'
GPGPU-Sim uArch: Shader 19 bind to kernel 1 '_Z17fdtd_step1_kernelPfS_S_S_i'
GPGPU-Sim uArch: Shader 20 bind to kernel 1 '_Z17fdtd_step1_kernelPfS_S_S_i'
GPGPU-Sim uArch: Shader 21 bind to kernel 1 '_Z17fdtd_step1_kernelPfS_S_S_i'
GPGPU-Sim uArch: Shader 22 bind to kernel 1 '_Z17fdtd_step1_kernelPfS_S_S_i'
GPGPU-Sim uArch: Shader 23 bind to kernel 1 '_Z17fdtd_step1_kernelPfS_S_S_i'
GPGPU-Sim uArch: Shader 24 bind to kernel 1 '_Z17fdtd_step1_kernelPfS_S_S_i'
GPGPU-Sim uArch: Shader 25 bind to kernel 1 '_Z17fdtd_step1_kernelPfS_S_S_i'
GPGPU-Sim uArch: Shader 26 bind to kernel 1 '_Z17fdtd_step1_kernelPfS_S_S_i'
GPGPU-Sim uArch: Shader 27 bind to kernel 1 '_Z17fdtd_step1_kernelPfS_S_S_i'
GPGPU-Sim uArch: Shader 0 bind to kernel 1 '_Z17fdtd_step1_kernelPfS_S_S_i'
GPGPU-Sim uArch: Shader 3 bind to kernel 1 '_Z17fdtd_step1_kernelPfS_S_S_i'
GPGPU-Sim uArch: Shader 5 bind to kernel 1 '_Z17fdtd_step1_kernelPfS_S_S_i'
GPGPU-Sim uArch: Shader 6 bind to kernel 1 '_Z17fdtd_step1_kernelPfS_S_S_i'
GPGPU-Sim uArch: Shader 9 bind to kernel 1 '_Z17fdtd_step1_kernelPfS_S_S_i'
GPGPU-Sim uArch: Shader 13 bind to kernel 1 '_Z17fdtd_step1_kernelPfS_S_S_i'
GPGPU-Sim uArch: Shader 16 bind to kernel 1 '_Z17fdtd_step1_kernelPfS_S_S_i'
GPGPU-Sim uArch: Shader 17 bind to kernel 1 '_Z17fdtd_step1_kernelPfS_S_S_i'
GPGPU-Sim uArch: Shader 19 bind to kernel 1 '_Z17fdtd_step1_kernelPfS_S_S_i'
GPGPU-Sim uArch: Shader 21 bind to kernel 1 '_Z17fdtd_step1_kernelPfS_S_S_i'
GPGPU-Sim uArch: Shader 22 bind to kernel 1 '_Z17fdtd_step1_kernelPfS_S_S_i'
GPGPU-Sim uArch: Shader 24 bind to kernel 1 '_Z17fdtd_step1_kernelPfS_S_S_i'
GPGPU-Sim uArch: Shader 26 bind to kernel 1 '_Z17fdtd_step1_kernelPfS_S_S_i'
GPGPU-Sim uArch: Shader 27 bind to kernel 1 '_Z17fdtd_step1_kernelPfS_S_S_i'
GPGPU-Sim uArch: Shader 12 bind to kernel 1 '_Z17fdtd_step1_kernelPfS_S_S_i'
GPGPU-Sim uArch: Shader 15 bind to kernel 1 '_Z17fdtd_step1_kernelPfS_S_S_i'
GPGPU-Sim uArch: Shader 17 bind to kernel 1 '_Z17fdtd_step1_kernelPfS_S_S_i'
GPGPU-Sim uArch: Shader 18 bind to kernel 1 '_Z17fdtd_step1_kernelPfS_S_S_i'
GPGPU-Sim uArch: Shader 19 bind to kernel 1 '_Z17fdtd_step1_kernelPfS_S_S_i'
GPGPU-Sim uArch: Shader 21 bind to kernel 1 '_Z17fdtd_step1_kernelPfS_S_S_i'
GPGPU-Sim uArch: Shader 22 bind to kernel 1 '_Z17fdtd_step1_kernelPfS_S_S_i'
GPGPU-Sim uArch: Shader 24 bind to kernel 1 '_Z17fdtd_step1_kernelPfS_S_S_i'
GPGPU-Sim uArch: Shader 26 bind to kernel 1 '_Z17fdtd_step1_kernelPfS_S_S_i'
GPGPU-Sim uArch: Shader 27 bind to kernel 1 '_Z17fdtd_step1_kernelPfS_S_S_i'
GPGPU-Sim uArch: Shader 0 bind to kernel 1 '_Z17fdtd_step1_kernelPfS_S_S_i'
GPGPU-Sim uArch: Shader 2 bind to kernel 1 '_Z17fdtd_step1_kernelPfS_S_S_i'
GPGPU-Sim uArch: Shader 3 bind to kernel 1 '_Z17fdtd_step1_kernelPfS_S_S_i'
GPGPU-Sim uArch: Shader 5 bind to kernel 1 '_Z17fdtd_step1_kernelPfS_S_S_i'
GPGPU-Sim uArch: Shader 6 bind to kernel 1 '_Z17fdtd_step1_kernelPfS_S_S_i'
GPGPU-Sim uArch: Shader 10 bind to kernel 1 '_Z17fdtd_step1_kernelPfS_S_S_i'
GPGPU-Sim uArch: Shader 0 bind to kernel 1 '_Z17fdtd_step1_kernelPfS_S_S_i'
GPGPU-Sim uArch: Shader 3 bind to kernel 1 '_Z17fdtd_step1_kernelPfS_S_S_i'
GPGPU-Sim uArch: Shader 4 bind to kernel 1 '_Z17fdtd_step1_kernelPfS_S_S_i'
GPGPU-Sim uArch: Shader 7 bind to kernel 1 '_Z17fdtd_step1_kernelPfS_S_S_i'
GPGPU-Sim uArch: Shader 10 bind to kernel 1 '_Z17fdtd_step1_kernelPfS_S_S_i'
GPGPU-Sim uArch: Shader 11 bind to kernel 1 '_Z17fdtd_step1_kernelPfS_S_S_i'
GPGPU-Sim uArch: Shader 12 bind to kernel 1 '_Z17fdtd_step1_kernelPfS_S_S_i'
GPGPU-Sim uArch: Shader 13 bind to kernel 1 '_Z17fdtd_step1_kernelPfS_S_S_i'
GPGPU-Sim uArch: Shader 14 bind to kernel 1 '_Z17fdtd_step1_kernelPfS_S_S_i'
GPGPU-Sim uArch: Shader 15 bind to kernel 1 '_Z17fdtd_step1_kernelPfS_S_S_i'
GPGPU-Sim uArch: Shader 16 bind to kernel 1 '_Z17fdtd_step1_kernelPfS_S_S_i'
GPGPU-Sim uArch: Shader 17 bind to kernel 1 '_Z17fdtd_step1_kernelPfS_S_S_i'
GPGPU-Sim uArch: Shader 18 bind to kernel 1 '_Z17fdtd_step1_kernelPfS_S_S_i'
GPGPU-Sim uArch: Shader 19 bind to kernel 1 '_Z17fdtd_step1_kernelPfS_S_S_i'
GPGPU-Sim uArch: Shader 20 bind to kernel 1 '_Z17fdtd_step1_kernelPfS_S_S_i'
GPGPU-Sim uArch: Shader 21 bind to kernel 1 '_Z17fdtd_step1_kernelPfS_S_S_i'
GPGPU-Sim uArch: Shader 22 bind to kernel 1 '_Z17fdtd_step1_kernelPfS_S_S_i'
GPGPU-Sim uArch: Shader 23 bind to kernel 1 '_Z17fdtd_step1_kernelPfS_S_S_i'
GPGPU-Sim uArch: Shader 24 bind to kernel 1 '_Z17fdtd_step1_kernelPfS_S_S_i'
GPGPU-Sim uArch: Shader 25 bind to kernel 1 '_Z17fdtd_step1_kernelPfS_S_S_i'
GPGPU-Sim uArch: Shader 26 bind to kernel 1 '_Z17fdtd_step1_kernelPfS_S_S_i'
GPGPU-Sim uArch: Shader 27 bind to kernel 1 '_Z17fdtd_step1_kernelPfS_S_S_i'
GPGPU-Sim uArch: Shader 0 bind to kernel 1 '_Z17fdtd_step1_kernelPfS_S_S_i'
GPGPU-Sim uArch: Shader 1 bind to kernel 1 '_Z17fdtd_step1_kernelPfS_S_S_i'
GPGPU-Sim uArch: Shader 2 bind to kernel 1 '_Z17fdtd_step1_kernelPfS_S_S_i'
GPGPU-Sim uArch: Shader 3 bind to kernel 1 '_Z17fdtd_step1_kernelPfS_S_S_i'
GPGPU-Sim uArch: Shader 4 bind to kernel 1 '_Z17fdtd_step1_kernelPfS_S_S_i'
GPGPU-Sim uArch: Shader 5 bind to kernel 1 '_Z17fdtd_step1_kernelPfS_S_S_i'
GPGPU-Sim uArch: Shader 6 bind to kernel 1 '_Z17fdtd_step1_kernelPfS_S_S_i'
GPGPU-Sim uArch: Shader 7 bind to kernel 1 '_Z17fdtd_step1_kernelPfS_S_S_i'
GPGPU-Sim uArch: Shader 8 bind to kernel 1 '_Z17fdtd_step1_kernelPfS_S_S_i'
GPGPU-Sim uArch: Shader 9 bind to kernel 1 '_Z17fdtd_step1_kernelPfS_S_S_i'
GPGPU-Sim uArch: Shader 5 bind to kernel 1 '_Z17fdtd_step1_kernelPfS_S_S_i'
GPGPU-Sim uArch: Shader 6 bind to kernel 1 '_Z17fdtd_step1_kernelPfS_S_S_i'
GPGPU-Sim uArch: Shader 8 bind to kernel 1 '_Z17fdtd_step1_kernelPfS_S_S_i'
GPGPU-Sim uArch: Shader 10 bind to kernel 1 '_Z17fdtd_step1_kernelPfS_S_S_i'
GPGPU-Sim uArch: Shader 11 bind to kernel 1 '_Z17fdtd_step1_kernelPfS_S_S_i'
GPGPU-Sim uArch: Shader 13 bind to kernel 1 '_Z17fdtd_step1_kernelPfS_S_S_i'
GPGPU-Sim uArch: Shader 14 bind to kernel 1 '_Z17fdtd_step1_kernelPfS_S_S_i'
GPGPU-Sim uArch: Shader 17 bind to kernel 1 '_Z17fdtd_step1_kernelPfS_S_S_i'
GPGPU-Sim uArch: Shader 18 bind to kernel 1 '_Z17fdtd_step1_kernelPfS_S_S_i'
GPGPU-Sim uArch: Shader 19 bind to kernel 1 '_Z17fdtd_step1_kernelPfS_S_S_i'
GPGPU-Sim uArch: Shader 20 bind to kernel 1 '_Z17fdtd_step1_kernelPfS_S_S_i'
GPGPU-Sim uArch: Shader 23 bind to kernel 1 '_Z17fdtd_step1_kernelPfS_S_S_i'
GPGPU-Sim uArch: Shader 25 bind to kernel 1 '_Z17fdtd_step1_kernelPfS_S_S_i'
GPGPU-Sim uArch: Shader 0 bind to kernel 1 '_Z17fdtd_step1_kernelPfS_S_S_i'
GPGPU-Sim uArch: Shader 25 bind to kernel 1 '_Z17fdtd_step1_kernelPfS_S_S_i'
GPGPU-Sim uArch: Shader 27 bind to kernel 1 '_Z17fdtd_step1_kernelPfS_S_S_i'
GPGPU-Sim uArch: Shader 17 bind to kernel 1 '_Z17fdtd_step1_kernelPfS_S_S_i'
GPGPU-Sim uArch: Shader 18 bind to kernel 1 '_Z17fdtd_step1_kernelPfS_S_S_i'
GPGPU-Sim uArch: Shader 16 bind to kernel 1 '_Z17fdtd_step1_kernelPfS_S_S_i'
GPGPU-Sim uArch: Shader 17 bind to kernel 1 '_Z17fdtd_step1_kernelPfS_S_S_i'
GPGPU-Sim uArch: Shader 18 bind to kernel 1 '_Z17fdtd_step1_kernelPfS_S_S_i'
GPGPU-Sim uArch: Shader 19 bind to kernel 1 '_Z17fdtd_step1_kernelPfS_S_S_i'
GPGPU-Sim uArch: Shader 27 bind to kernel 1 '_Z17fdtd_step1_kernelPfS_S_S_i'
GPGPU-Sim uArch: Shader 0 bind to kernel 1 '_Z17fdtd_step1_kernelPfS_S_S_i'
GPGPU-Sim uArch: Shader 6 bind to kernel 1 '_Z17fdtd_step1_kernelPfS_S_S_i'
GPGPU-Sim uArch: Shader 12 bind to kernel 1 '_Z17fdtd_step1_kernelPfS_S_S_i'
Destroy streams for kernel 1: size 0
kernel_name = _Z17fdtd_step1_kernelPfS_S_S_i 
kernel_launch_uid = 1 
gpu_sim_cycle = 1625849
gpu_sim_insn = 49297200
gpu_ipc =      30.3209
gpu_tot_sim_cycle = 1847999
gpu_tot_sim_insn = 49297200
gpu_tot_ipc =      26.6760
gpu_tot_issued_cta = 5700
max_total_param_size = 0
gpu_stall_dramfull = 235875
gpu_stall_icnt2sh    = 712343
partiton_reqs_in_parallel = 35532803
partiton_reqs_in_parallel_total    = 0
partiton_level_parallism =      21.8549
partiton_level_parallism_total  =      19.2277
partiton_reqs_in_parallel_util = 35532803
partiton_reqs_in_parallel_util_total    = 0
gpu_sim_cycle_parition_util = 1625024
gpu_tot_sim_cycle_parition_util    = 0
partiton_level_parallism_util =      21.8660
partiton_level_parallism_util_total  =      21.8660
partiton_replys_in_parallel = 271199
partiton_replys_in_parallel_total    = 0
L2_BW  =      15.8104 GB/Sec
L2_BW_total  =      13.9098 GB/Sec
gpu_total_sim_rate=30772

========= Core cache stats =========
L1I_cache:
	L1I_total_cache_accesses = 866248
	L1I_total_cache_misses = 1981
	L1I_total_cache_miss_rate = 0.0023
	L1I_total_cache_pending_hits = 0
	L1I_total_cache_reservation_fails = 6846
L1D_cache:
	L1D_cache_core[0]: Access = 0, Miss = 0, Miss_rate = -nan, Pending_hits = 0, Reservation_fails = 0
	L1D_cache_core[1]: Access = 0, Miss = 0, Miss_rate = -nan, Pending_hits = 0, Reservation_fails = 0
	L1D_cache_core[2]: Access = 0, Miss = 0, Miss_rate = -nan, Pending_hits = 0, Reservation_fails = 0
	L1D_cache_core[3]: Access = 0, Miss = 0, Miss_rate = -nan, Pending_hits = 0, Reservation_fails = 0
	L1D_cache_core[4]: Access = 0, Miss = 0, Miss_rate = -nan, Pending_hits = 0, Reservation_fails = 0
	L1D_cache_core[5]: Access = 0, Miss = 0, Miss_rate = -nan, Pending_hits = 0, Reservation_fails = 0
	L1D_cache_core[6]: Access = 0, Miss = 0, Miss_rate = -nan, Pending_hits = 0, Reservation_fails = 0
	L1D_cache_core[7]: Access = 0, Miss = 0, Miss_rate = -nan, Pending_hits = 0, Reservation_fails = 0
	L1D_cache_core[8]: Access = 0, Miss = 0, Miss_rate = -nan, Pending_hits = 0, Reservation_fails = 0
	L1D_cache_core[9]: Access = 0, Miss = 0, Miss_rate = -nan, Pending_hits = 0, Reservation_fails = 0
	L1D_cache_core[10]: Access = 0, Miss = 0, Miss_rate = -nan, Pending_hits = 0, Reservation_fails = 0
	L1D_cache_core[11]: Access = 0, Miss = 0, Miss_rate = -nan, Pending_hits = 0, Reservation_fails = 0
	L1D_cache_core[12]: Access = 0, Miss = 0, Miss_rate = -nan, Pending_hits = 0, Reservation_fails = 0
	L1D_cache_core[13]: Access = 0, Miss = 0, Miss_rate = -nan, Pending_hits = 0, Reservation_fails = 0
	L1D_cache_core[14]: Access = 0, Miss = 0, Miss_rate = -nan, Pending_hits = 0, Reservation_fails = 0
	L1D_cache_core[15]: Access = 0, Miss = 0, Miss_rate = -nan, Pending_hits = 0, Reservation_fails = 0
	L1D_cache_core[16]: Access = 0, Miss = 0, Miss_rate = -nan, Pending_hits = 0, Reservation_fails = 0
	L1D_cache_core[17]: Access = 0, Miss = 0, Miss_rate = -nan, Pending_hits = 0, Reservation_fails = 0
	L1D_cache_core[18]: Access = 0, Miss = 0, Miss_rate = -nan, Pending_hits = 0, Reservation_fails = 0
	L1D_cache_core[19]: Access = 0, Miss = 0, Miss_rate = -nan, Pending_hits = 0, Reservation_fails = 0
	L1D_cache_core[20]: Access = 0, Miss = 0, Miss_rate = -nan, Pending_hits = 0, Reservation_fails = 0
	L1D_cache_core[21]: Access = 0, Miss = 0, Miss_rate = -nan, Pending_hits = 0, Reservation_fails = 0
	L1D_cache_core[22]: Access = 0, Miss = 0, Miss_rate = -nan, Pending_hits = 0, Reservation_fails = 0
	L1D_cache_core[23]: Access = 0, Miss = 0, Miss_rate = -nan, Pending_hits = 0, Reservation_fails = 0
	L1D_cache_core[24]: Access = 0, Miss = 0, Miss_rate = -nan, Pending_hits = 0, Reservation_fails = 0
	L1D_cache_core[25]: Access = 0, Miss = 0, Miss_rate = -nan, Pending_hits = 0, Reservation_fails = 0
	L1D_cache_core[26]: Access = 0, Miss = 0, Miss_rate = -nan, Pending_hits = 0, Reservation_fails = 0
	L1D_cache_core[27]: Access = 0, Miss = 0, Miss_rate = -nan, Pending_hits = 0, Reservation_fails = 0
	L1D_total_cache_accesses = 0
	L1D_total_cache_misses = 0
	L1D_total_cache_pending_hits = 0
	L1D_total_cache_reservation_fails = 0
	L1D_cache_data_port_util = 0.000
	L1D_cache_fill_port_util = 0.000
L1C_cache:
	L1C_total_cache_accesses = 182400
	L1C_total_cache_misses = 1792
	L1C_total_cache_miss_rate = 0.0098
	L1C_total_cache_pending_hits = 0
	L1C_total_cache_reservation_fails = 4886
L1T_cache:
	L1T_total_cache_accesses = 0
	L1T_total_cache_misses = 0
	L1T_total_cache_pending_hits = 0
	L1T_total_cache_reservation_fails = 0

Total_core_cache_stats:
	Total_core_cache_stats_breakdown[GLOBAL_ACC_R][HIT] = 0
	Total_core_cache_stats_breakdown[GLOBAL_ACC_R][HIT_RESERVED] = 0
	Total_core_cache_stats_breakdown[GLOBAL_ACC_R][MISS] = 0
	Total_core_cache_stats_breakdown[GLOBAL_ACC_R][RESERVATION_FAIL] = 0
	Total_core_cache_stats_breakdown[LOCAL_ACC_R][HIT] = 0
	Total_core_cache_stats_breakdown[LOCAL_ACC_R][HIT_RESERVED] = 0
	Total_core_cache_stats_breakdown[LOCAL_ACC_R][MISS] = 0
	Total_core_cache_stats_breakdown[LOCAL_ACC_R][RESERVATION_FAIL] = 0
	Total_core_cache_stats_breakdown[CONST_ACC_R][HIT] = 180608
	Total_core_cache_stats_breakdown[CONST_ACC_R][HIT_RESERVED] = 0
	Total_core_cache_stats_breakdown[CONST_ACC_R][MISS] = 1792
	Total_core_cache_stats_breakdown[CONST_ACC_R][RESERVATION_FAIL] = 4886
	Total_core_cache_stats_breakdown[TEXTURE_ACC_R][HIT] = 0
	Total_core_cache_stats_breakdown[TEXTURE_ACC_R][HIT_RESERVED] = 0
	Total_core_cache_stats_breakdown[TEXTURE_ACC_R][MISS] = 0
	Total_core_cache_stats_breakdown[TEXTURE_ACC_R][RESERVATION_FAIL] = 0
	Total_core_cache_stats_breakdown[GLOBAL_ACC_W][HIT] = 0
	Total_core_cache_stats_breakdown[GLOBAL_ACC_W][HIT_RESERVED] = 0
	Total_core_cache_stats_breakdown[GLOBAL_ACC_W][MISS] = 0
	Total_core_cache_stats_breakdown[GLOBAL_ACC_W][RESERVATION_FAIL] = 0
	Total_core_cache_stats_breakdown[LOCAL_ACC_W][HIT] = 0
	Total_core_cache_stats_breakdown[LOCAL_ACC_W][HIT_RESERVED] = 0
	Total_core_cache_stats_breakdown[LOCAL_ACC_W][MISS] = 0
	Total_core_cache_stats_breakdown[LOCAL_ACC_W][RESERVATION_FAIL] = 0
	Total_core_cache_stats_breakdown[L1_WRBK_ACC][HIT] = 0
	Total_core_cache_stats_breakdown[L1_WRBK_ACC][HIT_RESERVED] = 0
	Total_core_cache_stats_breakdown[L1_WRBK_ACC][MISS] = 0
	Total_core_cache_stats_breakdown[L1_WRBK_ACC][RESERVATION_FAIL] = 0
	Total_core_cache_stats_breakdown[L2_WRBK_ACC][HIT] = 0
	Total_core_cache_stats_breakdown[L2_WRBK_ACC][HIT_RESERVED] = 0
	Total_core_cache_stats_breakdown[L2_WRBK_ACC][MISS] = 0
	Total_core_cache_stats_breakdown[L2_WRBK_ACC][RESERVATION_FAIL] = 0
	Total_core_cache_stats_breakdown[INST_ACC_R][HIT] = 864267
	Total_core_cache_stats_breakdown[INST_ACC_R][HIT_RESERVED] = 0
	Total_core_cache_stats_breakdown[INST_ACC_R][MISS] = 1981
	Total_core_cache_stats_breakdown[INST_ACC_R][RESERVATION_FAIL] = 6846
	Total_core_cache_stats_breakdown[L1_WR_ALLOC_R][HIT] = 0
	Total_core_cache_stats_breakdown[L1_WR_ALLOC_R][HIT_RESERVED] = 0
	Total_core_cache_stats_breakdown[L1_WR_ALLOC_R][MISS] = 0
	Total_core_cache_stats_breakdown[L1_WR_ALLOC_R][RESERVATION_FAIL] = 0
	Total_core_cache_stats_breakdown[L2_WR_ALLOC_R][HIT] = 0
	Total_core_cache_stats_breakdown[L2_WR_ALLOC_R][HIT_RESERVED] = 0
	Total_core_cache_stats_breakdown[L2_WR_ALLOC_R][MISS] = 0
	Total_core_cache_stats_breakdown[L2_WR_ALLOC_R][RESERVATION_FAIL] = 0
	Total_core_cache_stats_breakdown[CONST_ACC_R][TOTAL_ACCESS] = 182400
	Total_core_cache_stats_breakdown[INST_ACC_R][TOTAL_ACCESS] = 866248
Shader 0 warp_id issue ditsribution:
warp_id:
0, 1, 2, 3, 4, 5, 6, 7, 8, 9, 10, 11, 12, 13, 14, 15, 16, 17, 18, 19, 20, 21, 22, 23, 24, 25, 26, 27, 28, 29, 30, 31, 32, 33, 34, 35, 36, 37, 38, 39, 40, 41, 42, 43, 44, 45, 46, 47, 48, 49, 50, 51, 52, 53, 54, 55, 56, 57, 58, 59, 60, 61, 62, 63, 
distro:
1305, 1311, 1313, 1312, 1313, 1308, 1313, 1315, 1222, 1218, 1221, 1221, 1224, 1220, 1222, 1224, 1272, 1265, 1272, 1267, 1272, 1268, 1270, 1263, 1139, 1136, 1139, 1134, 1139, 1135, 1140, 1132, 1008, 1005, 1007, 999, 1007, 996, 1010, 1004, 1011, 1002, 1011, 1000, 1008, 999, 1006, 999, 1009, 1003, 1008, 1004, 1009, 1002, 1005, 1004, 961, 957, 958, 956, 959, 955, 962, 959, 
gpgpu_n_tot_thrd_icount = 52521472
gpgpu_n_tot_w_icount = 1641296
gpgpu_n_stall_shd_mem = 553727
gpgpu_n_mem_read_local = 0
gpgpu_n_mem_write_local = 0
gpgpu_n_mem_read_global = 203287
gpgpu_n_mem_write_global = 67800
gpgpu_n_mem_texture = 0
gpgpu_n_mem_const = 28
gpgpu_n_load_insn  = 4317600
gpgpu_n_store_insn = 1440000
gpgpu_n_shmem_insn = 0
gpgpu_n_tex_insn = 0
gpgpu_n_const_mem_insn = 0
gpgpu_n_param_mem_insn = 5836800
gpgpu_n_shmem_bkconflict = 0
gpgpu_n_cache_bkconflict = 0
gpgpu_n_intrawarp_mshr_merge = 0
gpgpu_n_cmem_portconflict = 4886
gpgpu_stall_shd_mem[c_mem][bk_conf] = 4886
gpgpu_stall_shd_mem[c_mem][mshr_rc] = 0
gpgpu_stall_shd_mem[c_mem][icnt_rc] = 0
gpgpu_stall_shd_mem[c_mem][data_port_stall] = 0
gpgpu_stall_shd_mem[t_mem][mshr_rc] = 0
gpgpu_stall_shd_mem[t_mem][icnt_rc] = 0
gpgpu_stall_shd_mem[t_mem][data_port_stall] = 0
gpgpu_stall_shd_mem[s_mem][bk_conf] = 0
gpgpu_stall_shd_mem[gl_mem][bk_conf] = 0
gpgpu_stall_shd_mem[gl_mem][coal_stall] = 392772
gpgpu_stall_shd_mem[gl_mem][data_port_stall] = 0
gpgpu_stall_shd_mem[g_mem_ld][mshr_rc] = 0
gpgpu_stall_shd_mem[g_mem_ld][icnt_rc] = 156069
gpgpu_stall_shd_mem[g_mem_ld][wb_icnt_rc] = 0
gpgpu_stall_shd_mem[g_mem_ld][wb_rsrv_fail] = 0
gpgpu_stall_shd_mem[g_mem_st][mshr_rc] = 0
gpgpu_stall_shd_mem[g_mem_st][icnt_rc] = 0
gpgpu_stall_shd_mem[g_mem_st][wb_icnt_rc] = 0
gpgpu_stall_shd_mem[g_mem_st][wb_rsrv_fail] = 0
gpgpu_stall_shd_mem[l_mem_ld][mshr_rc] = 0
gpgpu_stall_shd_mem[l_mem_ld][icnt_rc] = 0
gpgpu_stall_shd_mem[l_mem_ld][wb_icnt_rc] = 0
gpgpu_stall_shd_mem[l_mem_ld][wb_rsrv_fail] = 0
gpgpu_stall_shd_mem[l_mem_st][mshr_rc] = 0
gpgpu_stall_shd_mem[l_mem_st][icnt_rc] = 0
gpgpu_stall_shd_mem[l_mem_ld][wb_icnt_rc] = 0
gpgpu_stall_shd_mem[l_mem_ld][wb_rsrv_fail] = 0
gpu_reg_bank_conflict_stalls = 0
Warp Occupancy Distribution:
Stall:316159	W0_Idle:26096312	W0_Scoreboard:63330608	W1:0	W2:0	W3:0	W4:0	W5:0	W6:0	W7:0	W8:0	W9:0	W10:0	W11:0	W12:0	W13:0	W14:0	W15:0	W16:21592	W17:0	W18:0	W19:0	W20:0	W21:0	W22:0	W23:0	W24:0	W25:0	W26:0	W27:0	W28:0	W29:0	W30:0	W31:0	W32:1619704
traffic_breakdown_coretomem[CONST_ACC_R] = 224 {8:28,}
traffic_breakdown_coretomem[GLOBAL_ACC_R] = 1626296 {8:203287,}
traffic_breakdown_coretomem[GLOBAL_ACC_W] = 6302400 {72:45600,136:22200,}
traffic_breakdown_coretomem[INST_ACC_R] = 672 {8:84,}
traffic_breakdown_memtocore[CONST_ACC_R] = 2016 {72:28,}
traffic_breakdown_memtocore[GLOBAL_ACC_R] = 18893112 {40:38,72:136723,136:66526,}
traffic_breakdown_memtocore[GLOBAL_ACC_W] = 542400 {8:67800,}
traffic_breakdown_memtocore[INST_ACC_R] = 11424 {136:84,}
maxmrqlatency = 994 
maxdqlatency = 0 
maxmflatency = 244156 
averagemflatency = 4577 
max_icnt2mem_latency = 243901 
max_icnt2sh_latency = 1847998 
mrq_lat_table:28273 	2069 	3007 	5404 	9558 	13612 	19046 	21527 	18720 	2398 	0 	0 	0 	0 	0 	0 	0 	0 	0 	0 	0 	0 	0 	0 	0 	0 	0 	0 	0 	0 	0 	0 	
dq_lat_table:0 	0 	0 	0 	0 	0 	0 	0 	0 	0 	0 	0 	0 	0 	0 	0 	0 	0 	0 	0 	0 	0 	0 	0 	0 	0 	0 	0 	0 	0 	0 	0 	
mf_lat_table:0 	0 	0 	0 	0 	0 	0 	75671 	73122 	81334 	7877 	1199 	678 	4935 	9298 	16249 	739 	13 	0 	0 	0 	0 	0 	0 	0 	0 	0 	0 	0 	0 	0 	0 	
icnt2mem_lat_table:0 	0 	40752 	24872 	20191 	8790 	57428 	38519 	32871 	14568 	98 	1198 	678 	4935 	9455 	16092 	739 	13 	0 	0 	0 	0 	0 	0 	
icnt2sh_lat_table:0 	0 	44494 	88496 	65511 	4638 	176 	0 	0 	0 	0 	0 	0 	0 	0 	0 	0 	0 	12279 	18612 	36909 	0 	0 	0 	
mf_lat_pw_table:0 	0 	0 	0 	0 	0 	0 	29 	59 	38 	1 	14 	4 	20 	25 	20 	4 	1 	0 	0 	0 	0 	0 	0 	0 	0 	0 	0 	0 	0 	0 	0 	
maximum concurrent accesses to same row:
dram[0]:        16        16        16        16        16        16        17        17        16        16        16        16        16        16        16        16 
dram[1]:        16        16        16        16        16        16        17        17        16        16        16        16        16        16        16        16 
dram[2]:        16        16        16        16        16        16        17        17        16        16        16        16        16        16        16        16 
dram[3]:        16        16        16        16        16        16        16        16        16        16        16        16        16        16        16        16 
dram[4]:        16        16        16        16        16        16        16        16        16        16        16        16        16        16        16        16 
dram[5]:        16        16        16        16        16        16        16        16        16        16        16        16        16        16        16        16 
dram[6]:        16        16        16        16        16        16        16        16        16        16        16        16        16        16        16        16 
dram[7]:        16        16        16        16        16        16        16        16        16        16        16        16        16        16        16        16 
dram[8]:        16        16        16        16        16        16        16        16        16        16        16        16        16        16        16        16 
dram[9]:        16        16        16        16        16        16        16        16        16        16        16        16        16        16        16        16 
dram[10]:        16        16        16        16        16        16        16        16        16        16        16        16        16        16        16        16 
maximum service time to same row:
dram[0]:    250091    249576    251397    251798    252367    252275    251599    252145    251510    251336    249914    249781    249801    250060    249823    249747 
dram[1]:    249736    249936    251507    251766    252261    252159    251607    251612    251433    251276    249856    249818    249827    249816    249852    249805 
dram[2]:    249811    250011    251981    251738    252282    252494    251938    252011    251326    251391    249903    249863    249904    249847    249693    249673 
dram[3]:    249857    250251    252048    251782    252360    252380    251528    252052    251388    251181    249929    250096    249906    249863    249586    249675 
dram[4]:    250249    250192    252075    251638    252210    252482    251854    252148    251351    251203    249869    249811    249798    249745    249800    249767 
dram[5]:    249622    249910    252136    250793    252471    252043    252111    251842    251277    251298    249767    249755    250073    249735    249764    249701 
dram[6]:    250127    250109    252071    251209    252193    252379    251687    251677    251073    251333    249908    250053    250040    249879    249620    249701 
dram[7]:    250019    250196    252182    251689    252314    252304    251478    251295    251454    251582    250028    249996    249944    249907    249753    249571 
dram[8]:    250180    249940    252146    251749    252233    252278    251580    251782    251469    251143    249890    250132    250094    249797    249684    249692 
dram[9]:    250106    249895    251992    251855    252073    252403    252036    251775    251375    251316    249735    250122    249811    249966    249755    249674 
dram[10]:    250074    249819    251843    251808    251774    252225    252012    251675    251367    251548    250059    250037    249829    249791    249708    249630 
average row accesses per activate:
dram[0]:  6.238938  6.704762  6.230089  6.834951  6.476635  7.144330  5.818182  6.704762  6.518518  7.040000  6.017094  5.915967  6.560748  7.312500  6.342342  7.257732 
dram[1]:  6.285714  6.342342  6.518518  7.257732  6.930000  6.476635  5.915967  7.489362  7.183673  7.652174  5.595238  5.966102  7.237113  7.548387  5.770492  6.458715 
dram[2]:  6.230089  7.183673  6.641510  6.769231  6.653846  7.134021  6.579439  7.121212  6.285714  7.183673  5.543307  6.285714  7.080808  6.940594  6.400000  7.333333 
dram[3]:  6.704762  6.769231  7.736264  6.769231  6.407407  6.784314  6.518518  6.458715  6.579439  7.489362  5.543307  5.915967  6.315315  6.490741  6.901961  6.834951 
dram[4]:  6.641510  6.901961  6.834951  7.183673  6.989899  7.061224  6.704762  7.333333  6.121739  6.579439  6.068965  6.121739  6.676190  7.226804  6.527778  6.650943 
dram[5]:  6.342342  7.410526  7.111111  7.257732  6.784314  6.989899  6.518518  6.901961  6.230089  7.183673  6.579439  6.641510  6.551402  6.940594  6.527778  6.834951 
dram[6]:  7.040000  6.458715  6.970297  6.458715  6.547170  6.673077  6.641510  6.704762  7.040000  7.489362  5.915967  6.068965  6.613207  6.872549  6.518518  6.769231 
dram[7]:  6.769231  7.111111  7.652174  6.834951  7.010101  7.229167  6.342342  6.704762  6.641510  7.257732  6.175438  6.068965  6.872549  7.302083  6.579439  7.183673 
dram[8]:  6.769231  6.641510  6.400000  6.704762  6.803922  6.547170  6.342342  6.704762  7.111111  6.901961  6.342342  6.175438  6.882353  7.020000  6.400000  6.769231 
dram[9]:  6.641510  7.257732  7.183673  7.652174  6.309091  6.485981  6.641510  7.183673  6.704762  6.769231  5.770492  6.342342  6.950495  7.090909  6.175438  7.489362 
dram[10]:  6.641510  6.458715  6.458715  6.400000  5.688525  6.425926  7.333333  6.769231  6.901961  7.111111  5.915967  6.121739  6.500000  6.882353  6.518518  7.111111 
average row locality = 123614/18544 = 6.665984
number of total memory accesses made:
dram[0]:         0         0         0         0         0         0         0         0         0         0         0         0         0         0         0         0 
dram[1]:         0         0         0         0         0         0         0         0         0         0         0         0         0         0         0         0 
dram[2]:         0         0         0         0         0         0         0         0         0         0         0         0         0         0         0         0 
dram[3]:         0         0         0         0         0         0         0         0         0         0         0         0         0         0         0         0 
dram[4]:         0         0         0         0         0         0         0         0         0         0         0         0         0         0         0         0 
dram[5]:         0         0         0         0         0         0         0         0         0         0         0         0         0         0         0         0 
dram[6]:         0         0         0         0         0         0         0         0         0         0         0         0         0         0         0         0 
dram[7]:         0         0         0         0         0         0         0         0         0         0         0         0         0         0         0         0 
dram[8]:         0         0         0         0         0         0         0         0         0         0         0         0         0         0         0         0 
dram[9]:         0         0         0         0         0         0         0         0         0         0         0         0         0         0         0         0 
dram[10]:         0         0         0         0         0         0         0         0         0         0         0         0         0         0         0         0 
total accesses: 0
min_bank_accesses = 0!
min_chip_accesses = 0!
number of total read accesses:
dram[0]:       513       512       512       512       509       509       512       512       512       512       512       512       510       510       512       512 
dram[1]:       512       512       512       512       509       509       512       512       512       512       513       512       510       510       512       512 
dram[2]:       512       512       512       512       509       509       512       512       512       512       512       512       509       509       512       512 
dram[3]:       512       512       512       512       509       509       512       512       512       512       512       512       509       509       512       512 
dram[4]:       512       512       512       512       509       509       512       512       512       512       512       512       509       509       513       513 
dram[5]:       512       512       512       512       509       509       512       512       512       512       512       512       509       509       513       512 
dram[6]:       512       512       512       512       510       510       512       512       512       512       512       512       509       509       512       512 
dram[7]:       512       512       512       512       510       510       512       512       512       512       512       512       509       509       512       512 
dram[8]:       512       512       512       512       510       510       512       512       512       512       512       512       510       510       512       512 
dram[9]:       512       512       512       512       510       510       512       512       512       512       512       512       510       510       512       512 
dram[10]:       512       512       512       512       510       510       512       512       512       512       512       512       510       510       512       512 
total reads: 90005
bank skew: 513/509 = 1.01
chip skew: 8184/8180 = 1.00
number of total write accesses:
dram[0]:       192       192       192       192       184       184       192       192       192       192       192       192       192       192       192       192 
dram[1]:       192       192       192       192       184       184       192       192       192       192       192       192       192       192       192       192 
dram[2]:       192       192       192       192       183       183       192       193       192       192       192       192       192       192       192       192 
dram[3]:       192       192       192       192       183       183       192       192       192       192       192       192       192       192       192       192 
dram[4]:       192       192       192       192       183       183       192       192       192       192       192       192       192       192       192       192 
dram[5]:       192       192       192       192       183       183       192       192       192       192       192       192       192       192       192       192 
dram[6]:       192       192       192       192       184       184       192       192       192       192       192       192       192       192       192       192 
dram[7]:       192       192       192       192       184       184       192       192       192       192       192       192       192       192       192       192 
dram[8]:       192       192       192       192       184       184       192       192       192       192       192       192       192       192       192       192 
dram[9]:       192       192       192       192       184       184       192       192       192       192       192       192       192       192       192       192 
dram[10]:       192       192       192       192       184       184       192       192       192       192       192       192       192       192       192       192 
total reads: 33609
bank skew: 193/183 = 1.05
chip skew: 3056/3054 = 1.00
average mf latency per bank:
dram[0]:       7963      7975      9622      9551     12916     13126     12029     11967      9322      9427      8940      8996      7685      7700     12073     11916
dram[1]:       8015      8154      9273      9382     12526     12211     11990     12284      9325      9316     10189      9073      7697      8222     11766     11952
dram[2]:       8079      8130      9319      9418     12352     12456     12420     12569      9112      9177      8780      8975      8389      8308     11665     11561
dram[3]:       7996      8007      9414      9562     12501     12604     12478     12667      9374      9529      8763      8798      7839      7434     11438     11552
dram[4]:       8062      8061      9411      9427     13114     12536     12544     12422      9589      9351      8793      8726      7534      7564     11469     11684
dram[5]:       7779      7646      9278      9246     12615     12389     12478     12802      9154      9199      8597      8445      8195      8197     11414     11359
dram[6]:       8212      8260      9570      9625     12193     12535     12662     12464      9295      9056      8673      8561      8138      8031     11532     11777
dram[7]:       8202      8171      9658      9559     12732     12547     12501     12465      9180      9093      8661      8723      7988      7887     11862     12119
dram[8]:       8061      7967      9709      9585     12233     12442     12216     12078      9113      9231      8869      8751      7902      8063     12135     11600
dram[9]:       7860      7996      9508      9462     12312     12648     11962     12190      9117      9115      8735      8566      8121      8448     11962     11761
dram[10]:       8248      8357      9389      9406     13127     13352     12004     11764      9173      9388      8575      8963      8414      8428     11577     11712
maximum mf latency per bank:
dram[0]:     123682    123696     63517     63467    244136    244156    124043    124002     63470     63450    123798    123831    124157    124112    123691    123706
dram[1]:     123693    123700     63567     63561    244142    244154    123989    123900     63445     63430    123864    123780    124091    124295    123702    123674
dram[2]:     123696    123700     63535     63577    244134    244150    124058    124078     63415     63457    123851    123791    124122    124131    123674    123684
dram[3]:     123702    123696     63567     63520    244143    244155    124047    124059     63433     63455    123791    123827    124173    124100    123677    123679
dram[4]:     123700    123695     63458     63551    244137    123808    124025    123991     63438     63432    123791    123827    124144    124174    123701    123711
dram[5]:     123569     63863     63469     63566    123775    123811    123871    124070     63414     63454    123788    123817    124284    124101    123702    123700
dram[6]:     123568    123696     63537     63528    123801    123787    124072    124049     63414     63422    123781    123811    124157    124178    123702    123694
dram[7]:     123697    123698     63459     63542    123790    123814    124038    124083     63417     63410    123780    123822    124163    124167    123702    123703
dram[8]:     123700    123574     63539     63565    123796    123797    123925    124006     63404     63398    123786    123787    124168    124112    123701    123693
dram[9]:      63844    123572     63537     63457    244144    244134    123922    123898     63401     63397    123788    123836    124319    124303    123702    123701
dram[10]:     123700    123683     63503     63565    244136    244144    123873    123888     63472     63463    123802    123833    124145    124189    123705    123697
Memory Partition 0: 
Cache L2_bank_000:
MSHR contents

Cache L2_bank_001:
MSHR contents

In Dram Latency Queue (total = 0): 
DRAM[0]: 16 bks, busW=4 BL=8 CL=12, tRRD=2 tCCD=6, tRCD=12 tRAS=28 tRP=12 tRC=40
n_cmd=3018962 n_nop=2970582 n_act=1720 n_pre=1704 n_req=11239 n_rd=32732 n_write=12224 bw_util=0.02978
n_activity=100648 dram_eff=0.8933
bk0: 2052a 2986071i bk1: 2048a 2983991i bk2: 2048a 2986210i bk3: 2048a 2985271i bk4: 2036a 2986446i bk5: 2036a 2985309i bk6: 2048a 2985663i bk7: 2048a 2986784i bk8: 2048a 2986114i bk9: 2048a 2983795i bk10: 2048a 2984696i bk11: 2048a 2983115i bk12: 2040a 2985877i bk13: 2040a 2986615i bk14: 2048a 2984240i bk15: 2048a 2983578i 
dram_util_bins: 0 0 0 0 0 0 0 0 0 0
dram_eff_bins: 0 0 0 0 0 0 0 0 0 0
mrqq: max=64 avg=0.809661
Memory Partition 1: 
Cache L2_bank_002:
MSHR contents

Cache L2_bank_003:
MSHR contents

In Dram Latency Queue (total = 0): 
DRAM[1]: 16 bks, busW=4 BL=8 CL=12, tRRD=2 tCCD=6, tRCD=12 tRAS=28 tRP=12 tRC=40
n_cmd=3018962 n_nop=2970616 n_act=1703 n_pre=1687 n_req=11239 n_rd=32732 n_write=12224 bw_util=0.02978
n_activity=99966 dram_eff=0.8994
bk0: 2048a 2987225i bk1: 2048a 2985371i bk2: 2048a 2984497i bk3: 2048a 2982506i bk4: 2036a 2985192i bk5: 2036a 2982792i bk6: 2048a 2985132i bk7: 2048a 2988566i bk8: 2048a 2988367i bk9: 2048a 2986343i bk10: 2052a 2983428i bk11: 2048a 2982292i bk12: 2040a 2986696i bk13: 2040a 2984741i bk14: 2048a 2984450i bk15: 2048a 2983615i 
dram_util_bins: 0 0 0 0 0 0 0 0 0 0
dram_eff_bins: 0 0 0 0 0 0 0 0 0 0
mrqq: max=64 avg=0.814857
Memory Partition 2: 
Cache L2_bank_004:
MSHR contents

Cache L2_bank_005:
MSHR contents

In Dram Latency Queue (total = 0): 
DRAM[2]: 16 bks, busW=4 BL=8 CL=12, tRRD=2 tCCD=6, tRCD=12 tRAS=28 tRP=12 tRC=40
n_cmd=3018962 n_nop=2970674 n_act=1683 n_pre=1667 n_req=11235 n_rd=32720 n_write=12218 bw_util=0.02977
n_activity=99759 dram_eff=0.9009
bk0: 2048a 2984535i bk1: 2048a 2984599i bk2: 2048a 2983992i bk3: 2048a 2981823i bk4: 2036a 2985741i bk5: 2036a 2983725i bk6: 2048a 2985697i bk7: 2048a 2986816i bk8: 2048a 2986127i bk9: 2048a 2983329i bk10: 2048a 2981162i bk11: 2048a 2982757i bk12: 2036a 2986846i bk13: 2036a 2984261i bk14: 2048a 2984532i bk15: 2048a 2985206i 
dram_util_bins: 0 0 0 0 0 0 0 0 0 0
dram_eff_bins: 0 0 0 0 0 0 0 0 0 0
mrqq: max=64 avg=0.842991
Memory Partition 3: 
Cache L2_bank_006:
MSHR contents

Cache L2_bank_007:
MSHR contents

In Dram Latency Queue (total = 0): 
DRAM[3]: 16 bks, busW=4 BL=8 CL=12, tRRD=2 tCCD=6, tRCD=12 tRAS=28 tRP=12 tRC=40
n_cmd=3018962 n_nop=2970638 n_act=1702 n_pre=1686 n_req=11234 n_rd=32720 n_write=12216 bw_util=0.02977
n_activity=99859 dram_eff=0.9
bk0: 2048a 2984987i bk1: 2048a 2985793i bk2: 2048a 2988825i bk3: 2048a 2983183i bk4: 2036a 2984626i bk5: 2036a 2984884i bk6: 2048a 2986199i bk7: 2048a 2984581i bk8: 2048a 2985628i bk9: 2048a 2985134i bk10: 2048a 2984249i bk11: 2048a 2984340i bk12: 2036a 2987798i bk13: 2036a 2986205i bk14: 2048a 2985138i bk15: 2048a 2982457i 
dram_util_bins: 0 0 0 0 0 0 0 0 0 0
dram_eff_bins: 0 0 0 0 0 0 0 0 0 0
mrqq: max=64 avg=0.786728
Memory Partition 4: 
Cache L2_bank_008:
MSHR contents

Cache L2_bank_009:
MSHR contents

In Dram Latency Queue (total = 0): 
DRAM[4]: 16 bks, busW=4 BL=8 CL=12, tRRD=2 tCCD=6, tRCD=12 tRAS=28 tRP=12 tRC=40
n_cmd=3018962 n_nop=2970682 n_act=1676 n_pre=1660 n_req=11236 n_rd=32728 n_write=12216 bw_util=0.02977
n_activity=100038 dram_eff=0.8985
bk0: 2048a 2985577i bk1: 2048a 2984920i bk2: 2048a 2985278i bk3: 2048a 2983793i bk4: 2036a 2984626i bk5: 2036a 2984526i bk6: 2048a 2985417i bk7: 2048a 2986877i bk8: 2048a 2984786i bk9: 2048a 2985974i bk10: 2048a 2982413i bk11: 2048a 2980394i bk12: 2036a 2985825i bk13: 2036a 2985234i bk14: 2052a 2983268i bk15: 2052a 2981541i 
dram_util_bins: 0 0 0 0 0 0 0 0 0 0
dram_eff_bins: 0 0 0 0 0 0 0 0 0 0
mrqq: max=64 avg=0.852483
Memory Partition 5: 
Cache L2_bank_010:
MSHR contents

Cache L2_bank_011:
MSHR contents

In Dram Latency Queue (total = 0): 
DRAM[5]: 16 bks, busW=4 BL=8 CL=12, tRRD=2 tCCD=6, tRCD=12 tRAS=28 tRP=12 tRC=40
n_cmd=3018962 n_nop=2970726 n_act=1656 n_pre=1640 n_req=11235 n_rd=32724 n_write=12216 bw_util=0.02977
n_activity=99685 dram_eff=0.9016
bk0: 2048a 2985716i bk1: 2048a 2985596i bk2: 2048a 2984910i bk3: 2048a 2983973i bk4: 2036a 2985600i bk5: 2036a 2983043i bk6: 2048a 2985971i bk7: 2048a 2986379i bk8: 2048a 2985401i bk9: 2048a 2983499i bk10: 2048a 2987322i bk11: 2048a 2982340i bk12: 2036a 2986214i bk13: 2036a 2984641i bk14: 2052a 2983580i bk15: 2048a 2982869i 
dram_util_bins: 0 0 0 0 0 0 0 0 0 0
dram_eff_bins: 0 0 0 0 0 0 0 0 0 0
mrqq: max=64 avg=0.826279
Memory Partition 6: 
Cache L2_bank_012:
MSHR contents

Cache L2_bank_013:
MSHR contents

In Dram Latency Queue (total = 0): 
DRAM[6]: 16 bks, busW=4 BL=8 CL=12, tRRD=2 tCCD=6, tRCD=12 tRAS=28 tRP=12 tRC=40
n_cmd=3018962 n_nop=2970648 n_act=1689 n_pre=1673 n_req=11238 n_rd=32728 n_write=12224 bw_util=0.02978
n_activity=100353 dram_eff=0.8959
bk0: 2048a 2985552i bk1: 2048a 2983783i bk2: 2048a 2986254i bk3: 2048a 2982903i bk4: 2040a 2986190i bk5: 2040a 2983255i bk6: 2048a 2987036i bk7: 2048a 2984992i bk8: 2048a 2985299i bk9: 2048a 2984105i bk10: 2048a 2982705i bk11: 2048a 2980222i bk12: 2036a 2986446i bk13: 2036a 2985785i bk14: 2048a 2983919i bk15: 2048a 2983471i 
dram_util_bins: 0 0 0 0 0 0 0 0 0 0
dram_eff_bins: 0 0 0 0 0 0 0 0 0 0
mrqq: max=64 avg=0.827437
Memory Partition 7: 
Cache L2_bank_014:
MSHR contents

Cache L2_bank_015:
MSHR contents

In Dram Latency Queue (total = 0): 
DRAM[7]: 16 bks, busW=4 BL=8 CL=12, tRRD=2 tCCD=6, tRCD=12 tRAS=28 tRP=12 tRC=40
n_cmd=3018962 n_nop=2970736 n_act=1645 n_pre=1629 n_req=11238 n_rd=32728 n_write=12224 bw_util=0.02978
n_activity=100019 dram_eff=0.8989
bk0: 2048a 2984149i bk1: 2048a 2983633i bk2: 2048a 2986066i bk3: 2048a 2983592i bk4: 2040a 2985007i bk5: 2040a 2982065i bk6: 2048a 2986518i bk7: 2048a 2984438i bk8: 2048a 2985353i bk9: 2048a 2982688i bk10: 2048a 2983521i bk11: 2048a 2983431i bk12: 2036a 2984708i bk13: 2036a 2984825i bk14: 2048a 2980122i bk15: 2048a 2981430i 
dram_util_bins: 0 0 0 0 0 0 0 0 0 0
dram_eff_bins: 0 0 0 0 0 0 0 0 0 0
mrqq: max=64 avg=0.848061
Memory Partition 8: 
Cache L2_bank_016:
MSHR contents

Cache L2_bank_017:
MSHR contents

In Dram Latency Queue (total = 0): 
DRAM[8]: 16 bks, busW=4 BL=8 CL=12, tRRD=2 tCCD=6, tRCD=12 tRAS=28 tRP=12 tRC=40
n_cmd=3018962 n_nop=2970636 n_act=1691 n_pre=1675 n_req=11240 n_rd=32736 n_write=12224 bw_util=0.02979
n_activity=99832 dram_eff=0.9007
bk0: 2048a 2985976i bk1: 2048a 2985351i bk2: 2048a 2985498i bk3: 2048a 2982719i bk4: 2040a 2984562i bk5: 2040a 2983159i bk6: 2048a 2986689i bk7: 2048a 2985444i bk8: 2048a 2986500i bk9: 2048a 2984593i bk10: 2048a 2985750i bk11: 2048a 2984879i bk12: 2040a 2986146i bk13: 2040a 2985852i bk14: 2048a 2984708i bk15: 2048a 2983853i 
dram_util_bins: 0 0 0 0 0 0 0 0 0 0
dram_eff_bins: 0 0 0 0 0 0 0 0 0 0
mrqq: max=64 avg=0.818325
Memory Partition 9: 
Cache L2_bank_018:
MSHR contents

Cache L2_bank_019:
MSHR contents

In Dram Latency Queue (total = 0): 
DRAM[9]: 16 bks, busW=4 BL=8 CL=12, tRRD=2 tCCD=6, tRCD=12 tRAS=28 tRP=12 tRC=40
n_cmd=3018962 n_nop=2970690 n_act=1664 n_pre=1648 n_req=11240 n_rd=32736 n_write=12224 bw_util=0.02979
n_activity=99762 dram_eff=0.9013
bk0: 2048a 2986484i bk1: 2048a 2984868i bk2: 2048a 2985083i bk3: 2048a 2982358i bk4: 2040a 2986634i bk5: 2040a 2982463i bk6: 2048a 2987476i bk7: 2048a 2985377i bk8: 2048a 2984788i bk9: 2048a 2986149i bk10: 2048a 2984203i bk11: 2048a 2982885i bk12: 2040a 2984355i bk13: 2040a 2983419i bk14: 2048a 2982522i bk15: 2048a 2982182i 
dram_util_bins: 0 0 0 0 0 0 0 0 0 0
dram_eff_bins: 0 0 0 0 0 0 0 0 0 0
mrqq: max=64 avg=0.84642
Memory Partition 10: 
Cache L2_bank_020:
MSHR contents

Cache L2_bank_021:
MSHR contents

In Dram Latency Queue (total = 0): 
DRAM[10]: 16 bks, busW=4 BL=8 CL=12, tRRD=2 tCCD=6, tRCD=12 tRAS=28 tRP=12 tRC=40
n_cmd=3018962 n_nop=2970586 n_act=1716 n_pre=1700 n_req=11240 n_rd=32736 n_write=12224 bw_util=0.02979
n_activity=99687 dram_eff=0.902
bk0: 2048a 2985873i bk1: 2048a 2985436i bk2: 2048a 2984248i bk3: 2048a 2983732i bk4: 2040a 2986342i bk5: 2040a 2983224i bk6: 2048a 2989056i bk7: 2048a 2986687i bk8: 2048a 2984661i bk9: 2048a 2983801i bk10: 2048a 2984574i bk11: 2048a 2983605i bk12: 2040a 2986077i bk13: 2040a 2985453i bk14: 2048a 2981861i bk15: 2048a 2983492i 
dram_util_bins: 0 0 0 0 0 0 0 0 0 0
dram_eff_bins: 0 0 0 0 0 0 0 0 0 0
mrqq: max=64 avg=0.794351

========= L2 cache stats =========
L2_cache_bank[0]: Access = 12344, Miss = 4092, Miss_rate = 0.331, Pending_hits = 3738, Reservation_fails = 0
L2_cache_bank[1]: Access = 12320, Miss = 4091, Miss_rate = 0.332, Pending_hits = 3855, Reservation_fails = 0
L2_cache_bank[2]: Access = 12358, Miss = 4092, Miss_rate = 0.331, Pending_hits = 3783, Reservation_fails = 0
L2_cache_bank[3]: Access = 12318, Miss = 4091, Miss_rate = 0.332, Pending_hits = 3848, Reservation_fails = 0
L2_cache_bank[4]: Access = 12314, Miss = 4090, Miss_rate = 0.332, Pending_hits = 3730, Reservation_fails = 0
L2_cache_bank[5]: Access = 12318, Miss = 4090, Miss_rate = 0.332, Pending_hits = 3872, Reservation_fails = 0
L2_cache_bank[6]: Access = 12321, Miss = 4090, Miss_rate = 0.332, Pending_hits = 3750, Reservation_fails = 0
L2_cache_bank[7]: Access = 12321, Miss = 4090, Miss_rate = 0.332, Pending_hits = 3870, Reservation_fails = 0
L2_cache_bank[8]: Access = 12345, Miss = 4091, Miss_rate = 0.331, Pending_hits = 3851, Reservation_fails = 0
L2_cache_bank[9]: Access = 12347, Miss = 4091, Miss_rate = 0.331, Pending_hits = 3885, Reservation_fails = 0
L2_cache_bank[10]: Access = 12351, Miss = 4091, Miss_rate = 0.331, Pending_hits = 3817, Reservation_fails = 0
L2_cache_bank[11]: Access = 12322, Miss = 4090, Miss_rate = 0.332, Pending_hits = 3877, Reservation_fails = 0
L2_cache_bank[12]: Access = 12321, Miss = 4091, Miss_rate = 0.332, Pending_hits = 3774, Reservation_fails = 0
L2_cache_bank[13]: Access = 12319, Miss = 4091, Miss_rate = 0.332, Pending_hits = 3811, Reservation_fails = 0
L2_cache_bank[14]: Access = 12323, Miss = 4091, Miss_rate = 0.332, Pending_hits = 3757, Reservation_fails = 0
L2_cache_bank[15]: Access = 12323, Miss = 4091, Miss_rate = 0.332, Pending_hits = 3831, Reservation_fails = 0
L2_cache_bank[16]: Access = 12324, Miss = 4092, Miss_rate = 0.332, Pending_hits = 3707, Reservation_fails = 0
L2_cache_bank[17]: Access = 12320, Miss = 4092, Miss_rate = 0.332, Pending_hits = 3886, Reservation_fails = 0
L2_cache_bank[18]: Access = 12322, Miss = 4092, Miss_rate = 0.332, Pending_hits = 3746, Reservation_fails = 0
L2_cache_bank[19]: Access = 12324, Miss = 4092, Miss_rate = 0.332, Pending_hits = 3847, Reservation_fails = 0
L2_cache_bank[20]: Access = 12324, Miss = 4092, Miss_rate = 0.332, Pending_hits = 3711, Reservation_fails = 0
L2_cache_bank[21]: Access = 12320, Miss = 4092, Miss_rate = 0.332, Pending_hits = 3900, Reservation_fails = 0
L2_total_cache_accesses = 271199
L2_total_cache_misses = 90005
L2_total_cache_miss_rate = 0.3319
L2_total_cache_pending_hits = 83846
L2_total_cache_reservation_fails = 0
L2_total_cache_breakdown:
	L2_cache_stats_breakdown[GLOBAL_ACC_R][HIT] = 29586
	L2_cache_stats_breakdown[GLOBAL_ACC_R][HIT_RESERVED] = 83737
	L2_cache_stats_breakdown[GLOBAL_ACC_R][MISS] = 89964
	L2_cache_stats_breakdown[GLOBAL_ACC_R][RESERVATION_FAIL] = 0
	L2_cache_stats_breakdown[LOCAL_ACC_R][HIT] = 0
	L2_cache_stats_breakdown[LOCAL_ACC_R][HIT_RESERVED] = 0
	L2_cache_stats_breakdown[LOCAL_ACC_R][MISS] = 0
	L2_cache_stats_breakdown[LOCAL_ACC_R][RESERVATION_FAIL] = 0
	L2_cache_stats_breakdown[CONST_ACC_R][HIT] = 0
	L2_cache_stats_breakdown[CONST_ACC_R][HIT_RESERVED] = 27
	L2_cache_stats_breakdown[CONST_ACC_R][MISS] = 1
	L2_cache_stats_breakdown[CONST_ACC_R][RESERVATION_FAIL] = 0
	L2_cache_stats_breakdown[TEXTURE_ACC_R][HIT] = 0
	L2_cache_stats_breakdown[TEXTURE_ACC_R][HIT_RESERVED] = 0
	L2_cache_stats_breakdown[TEXTURE_ACC_R][MISS] = 0
	L2_cache_stats_breakdown[TEXTURE_ACC_R][RESERVATION_FAIL] = 0
	L2_cache_stats_breakdown[GLOBAL_ACC_W][HIT] = 67762
	L2_cache_stats_breakdown[GLOBAL_ACC_W][HIT_RESERVED] = 1
	L2_cache_stats_breakdown[GLOBAL_ACC_W][MISS] = 37
	L2_cache_stats_breakdown[GLOBAL_ACC_W][RESERVATION_FAIL] = 0
	L2_cache_stats_breakdown[LOCAL_ACC_W][HIT] = 0
	L2_cache_stats_breakdown[LOCAL_ACC_W][HIT_RESERVED] = 0
	L2_cache_stats_breakdown[LOCAL_ACC_W][MISS] = 0
	L2_cache_stats_breakdown[LOCAL_ACC_W][RESERVATION_FAIL] = 0
	L2_cache_stats_breakdown[L1_WRBK_ACC][HIT] = 0
	L2_cache_stats_breakdown[L1_WRBK_ACC][HIT_RESERVED] = 0
	L2_cache_stats_breakdown[L1_WRBK_ACC][MISS] = 0
	L2_cache_stats_breakdown[L1_WRBK_ACC][RESERVATION_FAIL] = 0
	L2_cache_stats_breakdown[L2_WRBK_ACC][HIT] = 0
	L2_cache_stats_breakdown[L2_WRBK_ACC][HIT_RESERVED] = 0
	L2_cache_stats_breakdown[L2_WRBK_ACC][MISS] = 0
	L2_cache_stats_breakdown[L2_WRBK_ACC][RESERVATION_FAIL] = 0
	L2_cache_stats_breakdown[INST_ACC_R][HIT] = 0
	L2_cache_stats_breakdown[INST_ACC_R][HIT_RESERVED] = 81
	L2_cache_stats_breakdown[INST_ACC_R][MISS] = 3
	L2_cache_stats_breakdown[INST_ACC_R][RESERVATION_FAIL] = 0
	L2_cache_stats_breakdown[L1_WR_ALLOC_R][HIT] = 0
	L2_cache_stats_breakdown[L1_WR_ALLOC_R][HIT_RESERVED] = 0
	L2_cache_stats_breakdown[L1_WR_ALLOC_R][MISS] = 0
	L2_cache_stats_breakdown[L1_WR_ALLOC_R][RESERVATION_FAIL] = 0
	L2_cache_stats_breakdown[L2_WR_ALLOC_R][HIT] = 0
	L2_cache_stats_breakdown[L2_WR_ALLOC_R][HIT_RESERVED] = 0
	L2_cache_stats_breakdown[L2_WR_ALLOC_R][MISS] = 0
	L2_cache_stats_breakdown[L2_WR_ALLOC_R][RESERVATION_FAIL] = 0
	L2_cache_stats_breakdown[GLOBAL_ACC_R][TOTAL_ACCESS] = 203287
	L2_cache_stats_breakdown[CONST_ACC_R][TOTAL_ACCESS] = 28
	L2_cache_stats_breakdown[GLOBAL_ACC_W][TOTAL_ACCESS] = 67800
	L2_cache_stats_breakdown[INST_ACC_R][TOTAL_ACCESS] = 84
L2_cache_data_port_util = 0.011
L2_cache_fill_port_util = 0.010

icnt_total_pkts_mem_to_simt=811179
icnt_total_pkts_simt_to_mem=451199
LD_mem_lat_dist  0 0 0 0 0 0 0 0 0 0 0 0 0 0 0 0 0 0 0 0 0 0 0 0 0 0 0
ST_mem_lat_dist  0 0 0 0 0 0 0 0 0 0 0 0 0 0 0 0 0 0 0 0 0 0 0 0 0 0 0
----------------------------Interconnect-DETAILS--------------------------------
Class 0:
Packet latency average = 47.0063
	minimum = 6
	maximum = 1656
Network latency average = 29.6578
	minimum = 6
	maximum = 1627
Slowest packet = 302459
Flit latency average = 21.5401
	minimum = 6
	maximum = 1627
Slowest flit = 697719
Fragmentation average = 0.0773731
	minimum = 0
	maximum = 543
Injected packet rate average = 0.00333609
	minimum = 0.00290741 (at node 6)
	maximum = 0.00380048 (at node 30)
Accepted packet rate average = 0.00333609
	minimum = 0.00290741 (at node 6)
	maximum = 0.00380048 (at node 30)
Injected flit rate average = 0.00776443
	minimum = 0.00483132 (at node 6)
	maximum = 0.0113753 (at node 38)
Accepted flit rate average= 0.00776443
	minimum = 0.00630256 (at node 32)
	maximum = 0.00921796 (at node 7)
Injected packet length average = 2.3274
Accepted packet length average = 2.3274
Total in-flight flits = 0 (0 measured)
====== Overall Traffic Statistics ======
====== Traffic class 0 ======
Packet latency average = 47.0063 (1 samples)
	minimum = 6 (1 samples)
	maximum = 1656 (1 samples)
Network latency average = 29.6578 (1 samples)
	minimum = 6 (1 samples)
	maximum = 1627 (1 samples)
Flit latency average = 21.5401 (1 samples)
	minimum = 6 (1 samples)
	maximum = 1627 (1 samples)
Fragmentation average = 0.0773731 (1 samples)
	minimum = 0 (1 samples)
	maximum = 543 (1 samples)
Injected packet rate average = 0.00333609 (1 samples)
	minimum = 0.00290741 (1 samples)
	maximum = 0.00380048 (1 samples)
Accepted packet rate average = 0.00333609 (1 samples)
	minimum = 0.00290741 (1 samples)
	maximum = 0.00380048 (1 samples)
Injected flit rate average = 0.00776443 (1 samples)
	minimum = 0.00483132 (1 samples)
	maximum = 0.0113753 (1 samples)
Accepted flit rate average = 0.00776443 (1 samples)
	minimum = 0.00630256 (1 samples)
	maximum = 0.00921796 (1 samples)
Injected packet size average = 2.3274 (1 samples)
Accepted packet size average = 2.3274 (1 samples)
Hops average = 1 (1 samples)
----------------------------END-of-Interconnect-DETAILS-------------------------


gpgpu_simulation_time = 0 days, 0 hrs, 26 min, 42 sec (1602 sec)
gpgpu_simulation_rate = 30772 (inst/sec)
gpgpu_simulation_rate = 1153 (cycle/sec)
GPGPU-Sim: synchronize waiting for inactive GPU simulation
GPGPU-Sim API: Stream Manager State
GPGPU-Sim: detected inactive GPU simulation thread

GPGPU-Sim PTX: cudaLaunch for 0x0x40167f (mode=performance simulation) on stream 0
GPGPU-Sim PTX: pushing kernel '_Z17fdtd_step2_kernelPfS_S_i' to stream 0, gridDim= (38,150,1) blockDim = (32,8,1) 
GPGPU-Sim uArch: Shader 9 bind to kernel 2 '_Z17fdtd_step2_kernelPfS_S_i'
GPGPU-Sim uArch: CTA/core = 8, limited by: threads
GPGPU-Sim uArch: Shader 10 bind to kernel 2 '_Z17fdtd_step2_kernelPfS_S_i'
GPGPU-Sim uArch: Shader 11 bind to kernel 2 '_Z17fdtd_step2_kernelPfS_S_i'
GPGPU-Sim uArch: Shader 12 bind to kernel 2 '_Z17fdtd_step2_kernelPfS_S_i'
GPGPU-Sim uArch: Shader 13 bind to kernel 2 '_Z17fdtd_step2_kernelPfS_S_i'
GPGPU-Sim uArch: Shader 14 bind to kernel 2 '_Z17fdtd_step2_kernelPfS_S_i'
GPGPU-Sim uArch: Shader 15 bind to kernel 2 '_Z17fdtd_step2_kernelPfS_S_i'
GPGPU-Sim uArch: Shader 16 bind to kernel 2 '_Z17fdtd_step2_kernelPfS_S_i'
GPGPU-Sim uArch: Shader 17 bind to kernel 2 '_Z17fdtd_step2_kernelPfS_S_i'
GPGPU-Sim uArch: Shader 18 bind to kernel 2 '_Z17fdtd_step2_kernelPfS_S_i'
GPGPU-Sim uArch: Shader 19 bind to kernel 2 '_Z17fdtd_step2_kernelPfS_S_i'
GPGPU-Sim uArch: Shader 20 bind to kernel 2 '_Z17fdtd_step2_kernelPfS_S_i'
GPGPU-Sim uArch: Shader 21 bind to kernel 2 '_Z17fdtd_step2_kernelPfS_S_i'
GPGPU-Sim uArch: Shader 22 bind to kernel 2 '_Z17fdtd_step2_kernelPfS_S_i'
GPGPU-Sim uArch: Shader 23 bind to kernel 2 '_Z17fdtd_step2_kernelPfS_S_i'
GPGPU-Sim uArch: Shader 24 bind to kernel 2 '_Z17fdtd_step2_kernelPfS_S_i'
GPGPU-Sim uArch: Shader 25 bind to kernel 2 '_Z17fdtd_step2_kernelPfS_S_i'
GPGPU-Sim uArch: Shader 26 bind to kernel 2 '_Z17fdtd_step2_kernelPfS_S_i'
GPGPU-Sim uArch: Shader 27 bind to kernel 2 '_Z17fdtd_step2_kernelPfS_S_i'
GPGPU-Sim uArch: Shader 0 bind to kernel 2 '_Z17fdtd_step2_kernelPfS_S_i'
GPGPU-Sim uArch: Shader 1 bind to kernel 2 '_Z17fdtd_step2_kernelPfS_S_i'
GPGPU-Sim uArch: Shader 2 bind to kernel 2 '_Z17fdtd_step2_kernelPfS_S_i'
GPGPU-Sim uArch: Shader 3 bind to kernel 2 '_Z17fdtd_step2_kernelPfS_S_i'
GPGPU-Sim uArch: Shader 4 bind to kernel 2 '_Z17fdtd_step2_kernelPfS_S_i'
GPGPU-Sim uArch: Shader 5 bind to kernel 2 '_Z17fdtd_step2_kernelPfS_S_i'
GPGPU-Sim uArch: Shader 6 bind to kernel 2 '_Z17fdtd_step2_kernelPfS_S_i'
GPGPU-Sim uArch: Shader 7 bind to kernel 2 '_Z17fdtd_step2_kernelPfS_S_i'
GPGPU-Sim uArch: Shader 8 bind to kernel 2 '_Z17fdtd_step2_kernelPfS_S_i'
GPGPU-Sim uArch: Shader 23 bind to kernel 2 '_Z17fdtd_step2_kernelPfS_S_i'
GPGPU-Sim uArch: Shader 16 bind to kernel 2 '_Z17fdtd_step2_kernelPfS_S_i'
GPGPU-Sim uArch: Shader 19 bind to kernel 2 '_Z17fdtd_step2_kernelPfS_S_i'
GPGPU-Sim uArch: Shader 23 bind to kernel 2 '_Z17fdtd_step2_kernelPfS_S_i'
[...]
Tlb_tot_thrash: 30792
========================================Page fault statistics==============================
Shader0: Page_table_access:15448 Page_hit: 13575 Page_miss: 1873 Page_hit_rate: 0.878755
Shader1: Page_table_access:14166 Page_hit: 12116 Page_miss: 2050 Page_hit_rate: 0.855287
Shader2: Page_table_access:14643 Page_hit: 12684 Page_miss: 1959 Page_hit_rate: 0.866216
Shader3: Page_table_access:14254 Page_hit: 12391 Page_miss: 1863 Page_hit_rate: 0.869300
Shader4: Page_table_access:14707 Page_hit: 12743 Page_miss: 1964 Page_hit_rate: 0.866458
Shader5: Page_table_access:13983 Page_hit: 12001 Page_miss: 1982 Page_hit_rate: 0.858256
Shader6: Page_table_access:14591 Page_hit: 12710 Page_miss: 1881 Page_hit_rate: 0.871085
Shader7: Page_table_access:14111 Page_hit: 12203 Page_miss: 1908 Page_hit_rate: 0.864786
Shader8: Page_table_access:14584 Page_hit: 12552 Page_miss: 2032 Page_hit_rate: 0.860669
Shader9: Page_table_access:14046 Page_hit: 12157 Page_miss: 1889 Page_hit_rate: 0.865513
Shader10: Page_table_access:15223 Page_hit: 13356 Page_miss: 1867 Page_hit_rate: 0.877357
Shader11: Page_table_access:14394 Page_hit: 12469 Page_miss: 1925 Page_hit_rate: 0.866264
Shader12: Page_table_access:14324 Page_hit: 12488 Page_miss: 1836 Page_hit_rate: 0.871823
Shader13: Page_table_access:13787 Page_hit: 11996 Page_miss: 1791 Page_hit_rate: 0.870095
Shader14: Page_table_access:14022 Page_hit: 12129 Page_miss: 1893 Page_hit_rate: 0.864998
Shader15: Page_table_access:13608 Page_hit: 11657 Page_miss: 1951 Page_hit_rate: 0.856628
Shader16: Page_table_access:13918 Page_hit: 12137 Page_miss: 1781 Page_hit_rate: 0.872036
Shader17: Page_table_access:15210 Page_hit: 13424 Page_miss: 1786 Page_hit_rate: 0.882577
Shader18: Page_table_access:14665 Page_hit: 12852 Page_miss: 1813 Page_hit_rate: 0.876372
Shader19: Page_table_access:14833 Page_hit: 12980 Page_miss: 1853 Page_hit_rate: 0.875076
Shader20: Page_table_access:14138 Page_hit: 12157 Page_miss: 1981 Page_hit_rate: 0.859881
Shader21: Page_table_access:16416 Page_hit: 14430 Page_miss: 1986 Page_hit_rate: 0.879020
Shader22: Page_table_access:14073 Page_hit: 12110 Page_miss: 1963 Page_hit_rate: 0.860513
Shader23: Page_table_access:14977 Page_hit: 12973 Page_miss: 2004 Page_hit_rate: 0.866195
Shader24: Page_table_access:14403 Page_hit: 12352 Page_miss: 2051 Page_hit_rate: 0.857599
Shader25: Page_table_access:14207 Page_hit: 12108 Page_miss: 2099 Page_hit_rate: 0.852256
Shader26: Page_table_access:14853 Page_hit: 12936 Page_miss: 1917 Page_hit_rate: 0.870935
Shader27: Page_table_access:15588 Page_hit: 13776 Page_miss: 1812 Page_hit_rate: 0.883757
Page_table_tot_access: 407172 Page_tot_hit: 353462, Page_tot_miss 53710, Page_tot_hit_rate: 0.868090 Page_tot_fault: 57 Page_tot_pending: 53625
Total_memory_access_page_fault: 57, Average_latency: 1338050.000000
========================================Page thrashing statistics==============================
Page_validate: 4624 Page_evict_dirty: 0 Page_evict_not_dirty: 0
Page_tot_thrash: 0
========================================Memory access statistics==============================
========================================Prefetch statistics==============================
Tot_page_hit: 0, Tot_page_miss: 0, Tot_page_fault: 0
Avg_page_latency: 0.000000, Avg_prefetch_size: -nan, Avg_prefetch_latency: 0.000000
========================================Rdma statistics==============================
dma_read: 28
dma_migration_read 93
dma_migration_write 0
========================================PCI-e statistics==============================
Pcie_read_utilization: 1.039362
[0-25]: 0.044274, [26-50]: 0.009518, [51-75]: 0.009471, [76-100]: 0.936737
Pcie_write_utilization: 0.000000
[0-25]: -nan, [26-50]: -nan, [51-75]: -nan, [76-100]: -nan
F:   222150----T:  1847999 	 	 	 Kl: 1 	 Sm: 0 	 T: kernel_launch(1097.804810)
F:   223436----T:   228077 	 St: c0c10000 Sz: 28672 	 Sm: 0 	 T: memcpy_h2d(3.133693)
F:   228077----T:   233592 	 St: c0c17000 Sz: 36864 	 Sm: 0 	 T: memcpy_h2d(3.723835)
F:   233592----T:   236392 	 St: c0c20000 Sz: 8192 	 Sm: 0 	 T: memcpy_h2d(1.890614)
F:   236392----T:   244172 	 St: c0c22000 Sz: 57344 	 Sm: 0 	 T: memcpy_h2d(5.253207)
F:   244172----T:   246777 	 St: c0000000 Sz: 4096 	 Sm: 0 	 T: memcpy_h2d(1.758947)
F:   246777----T:   255017 	 St: c0001000 Sz: 61440 	 Sm: 0 	 T: memcpy_h2d(5.563808)
F:   255017----T:   257817 	 St: c0c30000 Sz: 8192 	 Sm: 0 	 T: memcpy_h2d(1.890614)
F:   257817----T:   273043 	 St: c0c32000 Sz: 122880 	 Sm: 0 	 T: memcpy_h2d(10.280891)
F:   273043----T:   275843 	 St: c0610000 Sz: 8192 	 Sm: 0 	 T: memcpy_h2d(1.890614)
F:   275843----T:   278643 	 St: c0612000 Sz: 8192 	 Sm: 0 	 T: memcpy_h2d(1.890614)
F:   278643----T:   285508 	 St: c0614000 Sz: 49152 	 Sm: 0 	 T: memcpy_h2d(4.635382)
F:   285508----T:   288113 	 St: c0620000 Sz: 4096 	 Sm: 0 	 T: memcpy_h2d(1.758947)
F:   288113----T:   290718 	 St: c0621000 Sz: 4096 	 Sm: 0 	 T: memcpy_h2d(1.758947)
F:   290718----T:   298498 	 St: c0622000 Sz: 57344 	 Sm: 0 	 T: memcpy_h2d(5.253207)
F:   298498----T:   301103 	 St: c0630000 Sz: 4096 	 Sm: 0 	 T: memcpy_h2d(1.758947)
F:   301103----T:   316798 	 St: c0631000 Sz: 126976 	 Sm: 0 	 T: memcpy_h2d(10.597569)
F:   317302----T:   319907 	 St: c0c50000 Sz: 4096 	 Sm: 0 	 T: memcpy_h2d(1.758947)
F:   319907----T:   350630 	 St: c0c51000 Sz: 258048 	 Sm: 0 	 T: memcpy_h2d(20.744766)
F:   350630----T:   353235 	 St: c0650000 Sz: 4096 	 Sm: 0 	 T: memcpy_h2d(1.758947)
F:   353235----T:   383958 	 St: c0651000 Sz: 258048 	 Sm: 0 	 T: memcpy_h2d(20.744766)
F:   385031----T:   387636 	 St: c0c90000 Sz: 4096 	 Sm: 0 	 T: memcpy_h2d(1.758947)
F:   387636----T:   448472 	 St: c0c91000 Sz: 520192 	 Sm: 0 	 T: memcpy_h2d(41.077652)
F:   448472----T:   451077 	 St: c0690000 Sz: 4096 	 Sm: 0 	 T: memcpy_h2d(1.758947)
F:   451077----T:   511913 	 St: c0691000 Sz: 520192 	 Sm: 0 	 T: memcpy_h2d(41.077652)
F:   515966----T:   516166 	 St: c0d10a40 Sz: 64 	 Sm: 0 	 T: dma(0.135044)
F:   516166----T:   516366 	 St: c0d10a80 Sz: 64 	 Sm: 0 	 T: dma(0.135044)
F:   516366----T:   516566 	 St: c0d11d00 Sz: 128 	 Sm: 0 	 T: dma(0.135044)
F:   516566----T:   519652 	 St: c0d10000 Sz: 12288 	 Sm: 0 	 T: memcpy_h2d(2.083727)
F:   519652----T:   519852 	 St: c0711d00 Sz: 128 	 Sm: 0 	 T: dma(0.135044)
F:   519852----T:   640000 	 St: c0d13000 Sz: 1036288 	 Sm: 0 	 T: memcpy_h2d(81.126266)
F:   640000----T:   640200 	 St: c0710a40 Sz: 64 	 Sm: 0 	 T: dma(0.135044)
F:   640200----T:   640400 	 St: c0710a80 Sz: 64 	 Sm: 0 	 T: dma(0.135044)
F:   640400----T:   643200 	 St: c0710000 Sz: 8192 	 Sm: 0 	 T: memcpy_h2d(1.890614)
F:   643200----T:   763818 	 St: c0712000 Sz: 1040384 	 Sm: 0 	 T: memcpy_h2d(81.443619)
F:   773196----T:   775801 	 St: c0e10000 Sz: 4096 	 Sm: 0 	 T: memcpy_h2d(1.758947)
F:   775801----T:   784041 	 St: c0e11000 Sz: 61440 	 Sm: 0 	 T: memcpy_h2d(5.563808)
F:   784041----T:   786646 	 St: c0810000 Sz: 4096 	 Sm: 0 	 T: memcpy_h2d(1.758947)
F:   786646----T:   794886 	 St: c0811000 Sz: 61440 	 Sm: 0 	 T: memcpy_h2d(5.563808)
F:   795629----T:   798234 	 St: c0e20000 Sz: 4096 	 Sm: 0 	 T: memcpy_h2d(1.758947)
F:   798234----T:   806474 	 St: c0e21000 Sz: 61440 	 Sm: 0 	 T: memcpy_h2d(5.563808)
F:   806474----T:   809560 	 St: c0e30000 Sz: 12288 	 Sm: 0 	 T: memcpy_h2d(2.083727)
F:   809560----T:   824318 	 St: c0e33000 Sz: 118784 	 Sm: 0 	 T: memcpy_h2d(9.964889)
F:   824318----T:   826923 	 St: c0820000 Sz: 4096 	 Sm: 0 	 T: memcpy_h2d(1.758947)
F:   826923----T:   835163 	 St: c0821000 Sz: 61440 	 Sm: 0 	 T: memcpy_h2d(5.563808)
F:   835163----T:   837768 	 St: c0830000 Sz: 4096 	 Sm: 0 	 T: memcpy_h2d(1.758947)
F:   837768----T:   853463 	 St: c0831000 Sz: 126976 	 Sm: 0 	 T: memcpy_h2d(10.597569)
F:   853967----T:   856572 	 St: c0e50000 Sz: 4096 	 Sm: 0 	 T: memcpy_h2d(1.758947)
F:   856572----T:   887295 	 St: c0e51000 Sz: 258048 	 Sm: 0 	 T: memcpy_h2d(20.744766)
F:   887295----T:   889900 	 St: c0850000 Sz: 4096 	 Sm: 0 	 T: memcpy_h2d(1.758947)
F:   889900----T:   920623 	 St: c0851000 Sz: 258048 	 Sm: 0 	 T: memcpy_h2d(20.744766)
F:   921556----T:   924356 	 St: c0e90000 Sz: 8192 	 Sm: 0 	 T: memcpy_h2d(1.890614)
F:   924356----T:   984721 	 St: c0e92000 Sz: 516096 	 Sm: 0 	 T: memcpy_h2d(40.759621)
F:   984721----T:   987326 	 St: c0890000 Sz: 4096 	 Sm: 0 	 T: memcpy_h2d(1.758947)
F:   987326----T:  1048162 	 St: c0891000 Sz: 520192 	 Sm: 0 	 T: memcpy_h2d(41.077652)
F:  1052987----T:  1053187 	 St: c0f10000 Sz: 64 	 Sm: 0 	 T: dma(0.135044)
F:  1053187----T:  1053387 	 St: c0f101c0 Sz: 64 	 Sm: 0 	 T: dma(0.135044)
F:  1053387----T:  1053587 	 St: c0f10200 Sz: 64 	 Sm: 0 	 T: dma(0.135044)
F:  1053587----T:  1053787 	 St: c0f10240 Sz: 64 	 Sm: 0 	 T: dma(0.135044)
F:  1053787----T:  1053987 	 St: c0f10280 Sz: 64 	 Sm: 0 	 T: dma(0.135044)
F:  1053987----T:  1054187 	 St: c0910000 Sz: 64 	 Sm: 0 	 T: dma(0.135044)
F:  1054187----T:  1054387 	 St: c09101c0 Sz: 64 	 Sm: 0 	 T: dma(0.135044)
F:  1054387----T:  1054587 	 St: c0910200 Sz: 64 	 Sm: 0 	 T: dma(0.135044)
F:  1054587----T:  1054787 	 St: c0910240 Sz: 64 	 Sm: 0 	 T: dma(0.135044)
F:  1054787----T:  1054987 	 St: c0910280 Sz: 64 	 Sm: 0 	 T: dma(0.135044)
F:  1054987----T:  1057592 	 St: c0f10000 Sz: 4096 	 Sm: 0 	 T: memcpy_h2d(1.758947)
F:  1057592----T:  1178681 	 St: c0f11000 Sz: 1044480 	 Sm: 0 	 T: memcpy_h2d(81.761650)
F:  1178681----T:  1181286 	 St: c0910000 Sz: 4096 	 Sm: 0 	 T: memcpy_h2d(1.758947)
F:  1181286----T:  1302375 	 St: c0911000 Sz: 1044480 	 Sm: 0 	 T: memcpy_h2d(81.761650)
F:  1312602----T:  1315207 	 St: c1010000 Sz: 4096 	 Sm: 0 	 T: memcpy_h2d(1.758947)
F:  1315207----T:  1323447 	 St: c1011000 Sz: 61440 	 Sm: 0 	 T: memcpy_h2d(5.563808)
F:  1323447----T:  1326052 	 St: c0a10000 Sz: 4096 	 Sm: 0 	 T: memcpy_h2d(1.758947)
F:  1326052----T:  1334292 	 St: c0a11000 Sz: 61440 	 Sm: 0 	 T: memcpy_h2d(5.563808)
F:  1334850----T:  1337455 	 St: c1020000 Sz: 4096 	 Sm: 0 	 T: memcpy_h2d(1.758947)
F:  1337455----T:  1337655 	 St: c1030340 Sz: 64 	 Sm: 0 	 T: dma(0.135044)
F:  1337655----T:  1337855 	 St: c1030380 Sz: 64 	 Sm: 0 	 T: dma(0.135044)
F:  1337855----T:  1338055 	 St: c1031600 Sz: 128 	 Sm: 0 	 T: dma(0.135044)
F:  1338055----T:  1346295 	 St: c1021000 Sz: 61440 	 Sm: 0 	 T: memcpy_h2d(5.563808)
F:  1346295----T:  1346495 	 St: c0a31600 Sz: 128 	 Sm: 0 	 T: dma(0.135044)
F:  1346495----T:  1349100 	 St: c1030000 Sz: 4096 	 Sm: 0 	 T: memcpy_h2d(1.758947)
F:  1349100----T:  1364795 	 St: c1031000 Sz: 126976 	 Sm: 0 	 T: memcpy_h2d(10.597569)
F:  1364795----T:  1364995 	 St: c0a30340 Sz: 64 	 Sm: 0 	 T: dma(0.135044)
F:  1364995----T:  1365195 	 St: c0a30380 Sz: 64 	 Sm: 0 	 T: dma(0.135044)
F:  1365195----T:  1367800 	 St: c0a20000 Sz: 4096 	 Sm: 0 	 T: memcpy_h2d(1.758947)
F:  1367800----T:  1376040 	 St: c0a21000 Sz: 61440 	 Sm: 0 	 T: memcpy_h2d(5.563808)
F:  1376040----T:  1378645 	 St: c0a30000 Sz: 4096 	 Sm: 0 	 T: memcpy_h2d(1.758947)
F:  1378645----T:  1394340 	 St: c0a31000 Sz: 126976 	 Sm: 0 	 T: memcpy_h2d(10.597569)
F:  1394727----T:  1397332 	 St: c1050000 Sz: 4096 	 Sm: 0 	 T: memcpy_h2d(1.758947)
F:  1397332----T:  1428055 	 St: c1051000 Sz: 258048 	 Sm: 0 	 T: memcpy_h2d(20.744766)
F:  1428055----T:  1430660 	 St: c0a50000 Sz: 4096 	 Sm: 0 	 T: memcpy_h2d(1.758947)
F:  1430660----T:  1461383 	 St: c0a51000 Sz: 258048 	 Sm: 0 	 T: memcpy_h2d(20.744766)
F:  1462503----T:  1465108 	 St: c1090000 Sz: 4096 	 Sm: 0 	 T: memcpy_h2d(1.758947)
F:  1465108----T:  1525944 	 St: c1091000 Sz: 520192 	 Sm: 0 	 T: memcpy_h2d(41.077652)
F:  1525944----T:  1528549 	 St: c0a90000 Sz: 4096 	 Sm: 0 	 T: memcpy_h2d(1.758947)
F:  1528549----T:  1589385 	 St: c0a91000 Sz: 520192 	 Sm: 0 	 T: memcpy_h2d(41.077652)
F:  1594164----T:  1596769 	 St: c1110000 Sz: 4096 	 Sm: 0 	 T: memcpy_h2d(1.758947)
F:  1596769----T:  1717858 	 St: c1111000 Sz: 1044480 	 Sm: 0 	 T: memcpy_h2d(81.761650)
F:  1717858----T:  1720463 	 St: c0b10000 Sz: 4096 	 Sm: 0 	 T: memcpy_h2d(1.758947)
F:  1720463----T:  1841552 	 St: c0b11000 Sz: 1044480 	 Sm: 0 	 T: memcpy_h2d(81.761650)
F:  2070149----T:  2904747 	 	 	 Kl: 2 	 Sm: 0 	 T: kernel_launch(563.536804)
F:  2071825----T:  2074430 	 St: c0010000 Sz: 4096 	 Sm: 0 	 T: memcpy_h2d(1.758947)
F:  2074430----T:  2082670 	 St: c0011000 Sz: 61440 	 Sm: 0 	 T: memcpy_h2d(5.563808)
F:  2082670----T:  2086100 	 St: c0030000 Sz: 16384 	 Sm: 0 	 T: memcpy_h2d(2.316003)
F:  2086100----T:  2092965 	 St: c0034000 Sz: 49152 	 Sm: 0 	 T: memcpy_h2d(4.635382)
F:  2092965----T:  2095570 	 St: c0020000 Sz: 4096 	 Sm: 0 	 T: memcpy_h2d(1.758947)
F:  2095570----T:  2103810 	 St: c0021000 Sz: 61440 	 Sm: 0 	 T: memcpy_h2d(5.563808)
F:  2103810----T:  2112512 	 St: c0040000 Sz: 65536 	 Sm: 0 	 T: memcpy_h2d(5.875760)
F:  2113530----T:  2116135 	 St: c0050000 Sz: 4096 	 Sm: 0 	 T: memcpy_h2d(1.758947)
F:  2116135----T:  2146858 	 St: c0051000 Sz: 258048 	 Sm: 0 	 T: memcpy_h2d(20.744766)
F:  2148287----T:  2148487 	 St: c0091680 Sz: 128 	 Sm: 0 	 T: dma(0.135044)
F:  2148487----T:  2148687 	 St: c0091700 Sz: 64 	 Sm: 0 	 T: dma(0.135044)
F:  2148687----T:  2151487 	 St: c0090000 Sz: 8192 	 Sm: 0 	 T: memcpy_h2d(1.890614)
F:  2151487----T:  2211852 	 St: c0092000 Sz: 516096 	 Sm: 0 	 T: memcpy_h2d(40.759621)
F:  2216548----T:  2219634 	 St: c0110000 Sz: 12288 	 Sm: 0 	 T: memcpy_h2d(2.083727)
F:  2219634----T:  2339782 	 St: c0113000 Sz: 1036288 	 Sm: 0 	 T: memcpy_h2d(81.126266)
F:  2350515----T:  2353601 	 St: c0210000 Sz: 12288 	 Sm: 0 	 T: memcpy_h2d(2.083727)
F:  2353601----T:  2360923 	 St: c0213000 Sz: 53248 	 Sm: 0 	 T: memcpy_h2d(4.943957)
F:  2361636----T:  2364241 	 St: c0220000 Sz: 4096 	 Sm: 0 	 T: memcpy_h2d(1.758947)
F:  2364241----T:  2372481 	 St: c0221000 Sz: 61440 	 Sm: 0 	 T: memcpy_h2d(5.563808)
F:  2372481----T:  2375086 	 St: c0230000 Sz: 4096 	 Sm: 0 	 T: memcpy_h2d(1.758947)
F:  2375086----T:  2390781 	 St: c0231000 Sz: 126976 	 Sm: 0 	 T: memcpy_h2d(10.597569)
F:  2390781----T:  2394211 	 St: c0250000 Sz: 16384 	 Sm: 0 	 T: memcpy_h2d(2.316003)
F:  2394211----T:  2423523 	 St: c0254000 Sz: 245760 	 Sm: 0 	 T: memcpy_h2d(19.792032)
F:  2426852----T:  2429938 	 St: c0290000 Sz: 12288 	 Sm: 0 	 T: memcpy_h2d(2.083727)
F:  2429938----T:  2489833 	 St: c0293000 Sz: 512000 	 Sm: 0 	 T: memcpy_h2d(40.442268)
F:  2494463----T:  2497068 	 St: c0310000 Sz: 4096 	 Sm: 0 	 T: memcpy_h2d(1.758947)
F:  2497068----T:  2618157 	 St: c0311000 Sz: 1044480 	 Sm: 0 	 T: memcpy_h2d(81.761650)
F:  2629192----T:  2633833 	 St: c0410000 Sz: 28672 	 Sm: 0 	 T: memcpy_h2d(3.133693)
F:  2633833----T:  2634033 	 St: c0420680 Sz: 128 	 Sm: 0 	 T: dma(0.135044)
F:  2634033----T:  2634233 	 St: c0420700 Sz: 32 	 Sm: 0 	 T: dma(0.135044)
F:  2634233----T:  2639748 	 St: c0417000 Sz: 36864 	 Sm: 0 	 T: memcpy_h2d(3.723835)
F:  2639748----T:  2642353 	 St: c0420000 Sz: 4096 	 Sm: 0 	 T: memcpy_h2d(1.758947)
F:  2642353----T:  2650593 	 St: c0421000 Sz: 61440 	 Sm: 0 	 T: memcpy_h2d(5.563808)
F:  2651612----T:  2654217 	 St: c0430000 Sz: 4096 	 Sm: 0 	 T: memcpy_h2d(1.758947)
F:  2654217----T:  2669912 	 St: c0431000 Sz: 126976 	 Sm: 0 	 T: memcpy_h2d(10.597569)
F:  2669912----T:  2672712 	 St: c0450000 Sz: 8192 	 Sm: 0 	 T: memcpy_h2d(1.890614)
F:  2672712----T:  2702965 	 St: c0452000 Sz: 253952 	 Sm: 0 	 T: memcpy_h2d(20.427414)
F:  2704640----T:  2704840 	 St: c04905c0 Sz: 64 	 Sm: 0 	 T: dma(0.135044)
F:  2704840----T:  2705040 	 St: c0490600 Sz: 128 	 Sm: 0 	 T: dma(0.135044)
F:  2705040----T:  2707645 	 St: c0490000 Sz: 4096 	 Sm: 0 	 T: memcpy_h2d(1.758947)
F:  2707645----T:  2768481 	 St: c0491000 Sz: 520192 	 Sm: 0 	 T: memcpy_h2d(41.077652)
F:  2774678----T:  2777283 	 St: c0510000 Sz: 4096 	 Sm: 0 	 T: memcpy_h2d(1.758947)
F:  2777283----T:  2898372 	 St: c0511000 Sz: 1044480 	 Sm: 0 	 T: memcpy_h2d(81.761650)
F:  3126897----T:  3214250 	 	 	 Kl: 3 	 Sm: 0 	 T: kernel_launch(58.982445)
F:  3436400----T:  3491241 	 	 	 Kl: 4 	 Sm: 0 	 T: kernel_launch(37.029709)
F:  3713391----T:  3777962 	 	 	 Kl: 5 	 Sm: 0 	 T: kernel_launch(43.599594)
F:  4000112----T:  4086447 	 	 	 Kl: 6 	 Sm: 0 	 T: kernel_launch(58.295071)
F:  4308597----T:  4363579 	 	 	 Kl: 7 	 Sm: 0 	 T: kernel_launch(37.124916)
F:  4585729----T:  4650378 	 	 	 Kl: 8 	 Sm: 0 	 T: kernel_launch(43.652264)
F:  4872528----T:  4958318 	 	 	 Kl: 9 	 Sm: 0 	 T: kernel_launch(57.927074)
F:  5180468----T:  5235444 	 	 	 Kl: 10 	 Sm: 0 	 T: kernel_launch(37.120865)
F:  5457594----T:  5522231 	 	 	 Kl: 11 	 Sm: 0 	 T: kernel_launch(43.644161)
F:  5744381----T:  5830789 	 	 	 Kl: 12 	 Sm: 0 	 T: kernel_launch(58.344360)
F:  6052939----T:  6107833 	 	 	 Kl: 13 	 Sm: 0 	 T: kernel_launch(37.065495)
F:  6329983----T:  6394811 	 	 	 Kl: 14 	 Sm: 0 	 T: kernel_launch(43.773125)
F:  6616961----T:  6703398 	 	 	 Kl: 15 	 Sm: 0 	 T: kernel_launch(58.363945)
Tot_prefetch_time: 0(cycle), 0.000000(us)
Tot_kernel_exec_time: 3371148(cycle), 2276.264648(us)
Tot_kernel_exec_time_and_fault_time: 7169913(cycle), 4841.264648(us)
Tot_memcpy_h2d_time: 2353505(cycle), 1589.132324(us)
Tot_memcpy_d2h_time: 0(cycle), 0.000000(us)
Tot_memcpy_time: 2353505(cycle), 1589.132324(us)
Tot_devicesync_time: 0(cycle), 0.000000(us)
Tot_writeback_time: 0(cycle), 0.000000(us)
Tot_dma_time: 5600(cycle), 3.781229(us)
Tot_memcpy_d2h_sync_wb_time: 0(cycle), 0.000000(us)
GPGPU-Sim: *** exit detected ***
