

        *** GPGPU-Sim Simulator Version 3.2.2  [build gpgpu-sim_git-commit-c8c883f82f149f8a735f810bff4b4328d99c95c2_modified_0] ***


GPGPU-Sim PTX: simulation mode 0 (can change with PTX_SIM_MODE_FUNC environment variable:
               1=functional simulation only, 0=detailed performance simulator)
GPGPU-Sim: Configuration options:

-network_mode                           1 # Interconnection network mode
-inter_config_file   config_fermi_islip.icnt # Interconnection network config file
-gpgpu_ptx_use_cuobjdump                    1 # Use cuobjdump to extract ptx and sass from binaries
-gpgpu_experimental_lib_support                    0 # Try to extract code from cuda libraries [Broken because of unknown cudaGetExportTable]
-gpgpu_ptx_convert_to_ptxplus                    0 # Convert SASS (native ISA) to ptxplus and run ptxplus
-gpgpu_ptx_force_max_capability                   20 # Force maximum compute capability
-gpgpu_ptx_inst_debug_to_file                    0 # Dump executed instructions' debug information to file
-gpgpu_ptx_inst_debug_file       inst_debug.txt # Executed instructions' debug output file
-gpgpu_ptx_inst_debug_thread_uid                    1 # Thread UID for executed instructions' debug output
-gpgpu_simd_model                       1 # 1 = post-dominator
-gpgpu_shader_core_pipeline              2048:32 # shader core pipeline config, i.e., {<nthread>:<warpsize>}
-gpgpu_tex_cache:l1  16:128:24,L:R:m:N:L,F:128:4,128:2 # per-shader L1 texture cache  (READ-ONLY) config  {<nsets>:<bsize>:<assoc>,<rep>:<wr>:<alloc>:<wr_alloc>,<mshr>:<N>:<merge>,<mq>:<rf>}
-gpgpu_const_cache:l1 128:64:2,L:R:f:N:L,A:2:64,4 # per-shader L1 constant memory cache  (READ-ONLY) config  {<nsets>:<bsize>:<assoc>,<rep>:<wr>:<alloc>:<wr_alloc>,<mshr>:<N>:<merge>,<mq>} 
-gpgpu_cache:il1     8:128:4,L:R:f:N:L,A:2:48,4 # shader L1 instruction cache config  {<nsets>:<bsize>:<assoc>,<rep>:<wr>:<alloc>:<wr_alloc>,<mshr>:<N>:<merge>,<mq>} 
-gpgpu_cache:dl1     64:128:6,L:L:m:N:H,A:128:8,8 # per-shader L1 data cache config  {<nsets>:<bsize>:<assoc>,<rep>:<wr>:<alloc>:<wr_alloc>,<mshr>:<N>:<merge>,<mq> | none}
-gpgpu_cache:dl1PrefL1                 none # per-shader L1 data cache config  {<nsets>:<bsize>:<assoc>,<rep>:<wr>:<alloc>:<wr_alloc>,<mshr>:<N>:<merge>,<mq> | none}
-gpgpu_cache:dl1PrefShared                 none # per-shader L1 data cache config  {<nsets>:<bsize>:<assoc>,<rep>:<wr>:<alloc>:<wr_alloc>,<mshr>:<N>:<merge>,<mq> | none}
-gmem_skip_L1D                          1 # global memory access skip L1D cache (implements -Xptxas -dlcm=cg, default=no skip)
-gpgpu_perfect_mem                      0 # enable perfect memory mode (no cache miss)
-n_regfile_gating_group                    4 # group of lanes that should be read/written together)
-gpgpu_clock_gated_reg_file                    0 # enable clock gated reg file for power calculations
-gpgpu_clock_gated_lanes                    0 # enable clock gated lanes for power calculations
-gpgpu_shader_registers                65536 # Number of registers per shader core. Limits number of concurrent CTAs. (default 8192)
-gpgpu_shader_cta                      32 # Maximum number of concurrent CTAs in shader (default 8)
-gpgpu_num_cta_barriers                   16 # Maximum number of named barriers per CTA (default 16)
-gpgpu_n_clusters                      28 # number of processing clusters
-gpgpu_n_cores_per_cluster                    1 # number of simd cores per cluster
-gpgpu_n_cluster_ejection_buffer_size                    8 # number of packets in ejection buffer
-gpgpu_n_ldst_response_buffer_size                    2 # number of response packets in ld/st unit ejection buffer
-gpgpu_shmem_size                   16384 # Size of shared memory per shader core (default 16kB)
-gpgpu_shmem_size                   98304 # Size of shared memory per shader core (default 16kB)
-gpgpu_shmem_size_PrefL1                16384 # Size of shared memory per shader core (default 16kB)
-gpgpu_shmem_size_PrefShared                16384 # Size of shared memory per shader core (default 16kB)
-gpgpu_shmem_num_banks                   32 # Number of banks in the shared memory in each shader core (default 16)
-gpgpu_shmem_limited_broadcast                    0 # Limit shared memory to do one broadcast per cycle (default on)
-gpgpu_shmem_warp_parts                    1 # Number of portions a warp is divided into for shared memory bank conflict check 
-gpgpu_warpdistro_shader                   -1 # Specify which shader core to collect the warp size distribution from
-gpgpu_warp_issue_shader                    0 # Specify which shader core to collect the warp issue distribution from
-gpgpu_local_mem_map                    1 # Mapping from local memory space address to simulated GPU physical address space (default = enabled)
-gpgpu_num_reg_banks                   32 # Number of register banks (default = 8)
-gpgpu_reg_bank_use_warp_id                    0 # Use warp ID in mapping registers to banks (default = off)
-gpgpu_operand_collector_num_units_sp                   20 # number of collector units (default = 4)
-gpgpu_operand_collector_num_units_sfu                    4 # number of collector units (default = 4)
-gpgpu_operand_collector_num_units_mem                    8 # number of collector units (default = 2)
-gpgpu_operand_collector_num_units_gen                    0 # number of collector units (default = 0)
-gpgpu_operand_collector_num_in_ports_sp                    4 # number of collector unit in ports (default = 1)
-gpgpu_operand_collector_num_in_ports_sfu                    1 # number of collector unit in ports (default = 1)
-gpgpu_operand_collector_num_in_ports_mem                    1 # number of collector unit in ports (default = 1)
-gpgpu_operand_collector_num_in_ports_gen                    0 # number of collector unit in ports (default = 0)
-gpgpu_operand_collector_num_out_ports_sp                    4 # number of collector unit in ports (default = 1)
-gpgpu_operand_collector_num_out_ports_sfu                    1 # number of collector unit in ports (default = 1)
-gpgpu_operand_collector_num_out_ports_mem                    1 # number of collector unit in ports (default = 1)
-gpgpu_operand_collector_num_out_ports_gen                    0 # number of collector unit in ports (default = 0)
-gpgpu_coalesce_arch                   13 # Coalescing arch (default = 13, anything else is off for now)
-gpgpu_num_sched_per_core                    2 # Number of warp schedulers per core
-gpgpu_max_insn_issue_per_warp                    2 # Max number of instructions that can be issued per warp in one cycle by scheduler
-gpgpu_simt_core_sim_order                    1 # Select the simulation order of cores in a cluster (0=Fix, 1=Round-Robin)
-gpgpu_pipeline_widths        4,1,1,4,1,1,6 # Pipeline widths ID_OC_SP,ID_OC_SFU,ID_OC_MEM,OC_EX_SP,OC_EX_SFU,OC_EX_MEM,EX_WB
-gpgpu_num_sp_units                     4 # Number of SP units (default=1)
-gpgpu_num_sfu_units                    1 # Number of SF units (default=1)
-gpgpu_num_mem_units                    1 # Number if ldst units (default=1) WARNING: not hooked up to anything
-gpgpu_scheduler                      gto # Scheduler configuration: < lrr | gto | two_level_active > If two_level_active:<num_active_warps>:<inner_prioritization>:<outer_prioritization>For complete list of prioritization values see shader.h enum scheduler_prioritization_typeDefault: gto
-gpgpu_concurrent_kernel_sm                    0 # Support concurrent kernels on a SM (default = disabled)
-tlb_size                            4096 # Number of tlb entries per SM.
-gpgpu_dram_scheduler                    1 # 0 = fifo, 1 = FR-FCFS (defaul)
-gpgpu_dram_partition_queues              8:8:8:8 # i2$:$2d:d2$:$2i
-l2_ideal                               0 # Use a ideal L2 cache that always hit
-gpgpu_cache:dl2     64:128:16,L:B:m:W:L,A:1024:1024,4:0,32 # unified banked L2 data cache config  {<nsets>:<bsize>:<assoc>,<rep>:<wr>:<alloc>:<wr_alloc>,<mshr>:<N>:<merge>,<mq>}
-gpgpu_cache:dl2_texture_only                    0 # L2 cache used for texture only
-gpgpu_n_mem                           11 # number of memory modules (e.g. memory controllers) in gpu
-gpgpu_n_sub_partition_per_mchannel                    2 # number of memory subpartition in each memory module
-gpgpu_n_mem_per_ctrlr                    1 # number of memory chips per memory controller
-gpgpu_memlatency_stat                   14 # track and display latency statistics 0x2 enables MC, 0x4 enables queue logs
-gpgpu_frfcfs_dram_sched_queue_size                   64 # 0 = unlimited (default); # entries per chip
-gpgpu_dram_return_queue_size                  116 # 0 = unlimited (default); # entries per chip
-gpgpu_dram_buswidth                    4 # default = 4 bytes (8 bytes per cycle at DDR)
-gpgpu_dram_burst_length                    8 # Burst length of each DRAM request (default = 4 data bus cycle)
-dram_data_command_freq_ratio                    4 # Frequency ratio between DRAM data bus and command bus (default = 2 times, i.e. DDR)
-gpgpu_dram_timing_opt nbk=16:CCD=2:RRD=6:RCD=12:RAS=28:RP=12:RC=40: CL=12:WL=4:CDLR=5:WR=12:nbkgrp=1:CCDL=0:RTPL=0 # DRAM timing parameters = {nbk:tCCD:tRRD:tRCD:tRAS:tRP:tRC:CL:WL:tCDLR:tWR:nbkgrp:tCCDL:tRTPL}
-rop_latency                          120 # ROP queue latency (default 85)
-dram_latency                         100 # DRAM latency (default 30)
-gpgpu_mem_addr_mapping dramid@8;00000000.00000000.00000000.00000000.0000RRRR.RRRRRRRR.RBBBCCCC.BCCSSSSS # mapping memory address to dram model {dramid@<start bit>;<memory address map>}
-gpgpu_mem_addr_test                    0 # run sweep test to check address mapping for aliased address
-gpgpu_mem_address_mask                    1 # 0 = old addressing mask, 1 = new addressing mask, 2 = new add. mask + flipped bank sel and chip sel bits
-gpuwattch_xml_file  gpuwattch_geforcegtx1080ti.xml # GPUWattch XML file
-power_simulation_enabled                    1 # Turn on power simulator (1=On, 0=Off)
-power_per_cycle_dump                    0 # Dump detailed power output each cycle
-power_trace_enabled                    0 # produce a file for the power trace (1=On, 0=Off)
-power_trace_zlevel                     6 # Compression level of the power trace output log (0=no comp, 9=highest)
-steady_power_levels_enabled                    0 # produce a file for the steady power levels (1=On, 0=Off)
-steady_state_definition                  8:4 # allowed deviation:number of samples
-gpgpu_max_cycle                        0 # terminates gpu simulation early (0 = no limit)
-gpgpu_max_insn                         0 # terminates gpu simulation early (0 = no limit)
-gpgpu_max_cta                          0 # terminates gpu simulation early (0 = no limit)
-gpgpu_runtime_stat                   500 # display runtime statistics such as dram utilization {<freq>:<flag>}
-liveness_message_freq                    1 # Minimum number of seconds between simulation liveness messages (0 = always print)
-gpgpu_flush_l1_cache                    0 # Flush L1 cache at the end of each kernel call
-gpgpu_flush_l2_cache                    0 # Flush L2 cache at the end of each kernel call
-gpgpu_deadlock_detect                    0 # Stop the simulation at deadlock (1=on (default), 0=off)
-gpgpu_ptx_instruction_classification                    0 # if enabled will classify ptx instruction types per kernel (Max 255 kernels now)
-gpgpu_ptx_sim_mode                     0 # Select between Performance (default) or Functional simulation (1)
-gpgpu_clock_domains 1481.0:2962.0:1481.0:2750.0 # Clock Domain Frequencies in MhZ {<Core Clock>:<ICNT Clock>:<L2 Clock>:<DRAM Clock>}
-gpgpu_max_concurrent_kernel                    8 # maximum kernels that can run concurrently on GPU
-gpgpu_cflog_interval                    0 # Interval between each snapshot in control flow logger
-visualizer_enabled                     0 # Turn on visualizer output (1=On, 0=Off)
-visualizer_outputfile                 NULL # Specifies the output log file for visualizer
-visualizer_zlevel                      6 # Compression level of the visualizer output log (0=no comp, 9=highest)
-trace_enabled                          0 # Turn on traces
-trace_components                    none # comma seperated list of traces to enable. Complete list found in trace_streams.tup. Default none
-trace_sampling_core                    0 # The core which is printed using CORE_DPRINTF. Default 0
-trace_sampling_memory_partition                   -1 # The memory partition which is printed using MEMPART_DPRINTF. Default -1 (i.e. all)
-gddr_size                          9.6MB # Size of GDDR in MB/GB.(GLOBAL_HEAP_START, GLOBAL_HEAP_START + gddr_size) would be used for unmanged memory, (GLOBAL_HEAP_START + gddr_size, GLOBAL_HEAP_START + gddr_size*2) would be used for managed memory. 
-page_table_walk_latency                  100 # Average page table walk latency (in core cycle).
-eviction_policy                        4 # Select page eviction policy
-invalidate_clean                       0 # Should directly invalidate clean pages
-reserve_accessed_page_percent                    0 # Percentage of accessed pages reserved from eviction in hope that they will be accessed in next iteration.
-percentage_of_free_page_buffer                    0 # Percentage of free page buffer to trigger the page eviction.
-page_size                            4KB # GDDR page size, only 4KB/2MB avaliable.
-pcie_bandwidth                  16.0GB/s # PCI-e bandwidth per direction, in GB/s.
-enable_dma                             1 # Enable direct access to CPU memory
-multiply_dma_penalty                    2 # Oversubscription Multiplicative Penalty Factor for Adaptive DMA
-migrate_threshold                      8 # Access counter threshold for migrating the page from cpu to gpu
-sim_prof_enable                        1 # Enable gpgpu-sim profiler
-hardware_prefetch                      1 # Select gpgpu-sim hardware prefetcher
-hwprefetch_oversub                     1 # Select gpgpu-sim hardware prefetcher under over-subscription
-page_fault_latency                 66645 # Average fault latency (in core cycle).
-enable_accurate_simulation                    0 # Enable page fault functional simulation.
-enable_ptx_file_line_stats                    1 # Turn on PTX source line statistic profiling. (1 = On)
-ptx_line_stats_filename gpgpu_inst_stats.txt # Output file for PTX source line statistics.
-gpgpu_kernel_launch_latency               222150 # Kernel launch latency in cycles. Default: 0
-gpgpu_cdp_enabled                      0 # Turn on CDP
-save_embedded_ptx                      0 # saves ptx files embedded in binary as <n>.ptx
-keep                                   0 # keep intermediate files created by GPGPU-Sim when interfacing with external programs
-gpgpu_ptx_save_converted_ptxplus                    0 # Saved converted ptxplus to a file
-ptx_opcode_latency_int         4,13,4,5,145 # Opcode latencies for integers <ADD,MAX,MUL,MAD,DIV>Default 1,1,19,25,145
-ptx_opcode_latency_fp          4,13,4,5,39 # Opcode latencies for single precision floating points <ADD,MAX,MUL,MAD,DIV>Default 1,1,1,1,30
-ptx_opcode_latency_dp         8,19,8,8,330 # Opcode latencies for double precision floating points <ADD,MAX,MUL,MAD,DIV>Default 8,8,8,8,335
-ptx_opcode_initiation_int            1,2,2,2,8 # Opcode initiation intervals for integers <ADD,MAX,MUL,MAD,DIV>Default 1,1,4,4,32
-ptx_opcode_initiation_fp            1,2,1,1,4 # Opcode initiation intervals for single precision floating points <ADD,MAX,MUL,MAD,DIV>Default 1,1,1,1,5
-ptx_opcode_initiation_dp          1,2,1,1,130 # Opcode initiation intervals for double precision floating points <ADD,MAX,MUL,MAD,DIV>Default 8,8,8,8,130
-cdp_latency         7200,8000,100,12000,1600 # CDP API latency <cudaStreamCreateWithFlags, cudaGetParameterBufferV2_init_perWarp, cudaGetParameterBufferV2_perKernel, cudaLaunchDeviceV2_init_perWarp, cudaLaunchDevicV2_perKernel>Default 7200,8000,100,12000,1600
DRAM Timing Options:
nbk                                    16 # number of banks
CCD                                     2 # column to column delay
RRD                                     6 # minimal delay between activation of rows in different banks
RCD                                    12 # row to column delay
RAS                                    28 # time needed to activate row
RP                                     12 # time needed to precharge (deactivate) row
RC                                     40 # row cycle time
CDLR                                    5 # switching from write to read (changes tWTR)
WR                                     12 # last data-in to row precharge
CL                                     12 # CAS latency
WL                                      4 # Write latency
nbkgrp                                  1 # number of bank groups
CCDL                                    0 # column to column delay between accesses to different bank groups
RTPL                                    0 # read to precharge delay between accesses to different bank groups
Total number of memory sub partition = 22
addr_dec_mask[CHIP]  = 0000000000000000 	high:64 low:0
addr_dec_mask[BK]    = 0000000000007080 	high:15 low:7
addr_dec_mask[ROW]   = 000000000fff8000 	high:28 low:15
addr_dec_mask[COL]   = 0000000000000f7f 	high:12 low:0
addr_dec_mask[BURST] = 000000000000001f 	high:5 low:0
sub_partition_id_mask = 0000000000000080
GPGPU-Sim uArch: clock freqs: 1481000000.000000:2962000000.000000:1481000000.000000:2750000000.000000
GPGPU-Sim uArch: clock periods: 0.00000000067521944632:0.00000000033760972316:0.00000000067521944632:0.00000000036363636364
*** Initializing Memory Statistics ***
GPGPU-Sim uArch: interconnect node map (shaderID+MemID to icntID)
GPGPU-Sim uArch: Memory nodes ID start from index: 28
GPGPU-Sim uArch:    0   1   2   3   4   5   6
GPGPU-Sim uArch:    7   8   9  10  11  12  13
GPGPU-Sim uArch:   14  15  16  17  18  19  20
GPGPU-Sim uArch:   21  22  23  24  25  26  27
GPGPU-Sim uArch:   28  29  30  31  32  33  34
GPGPU-Sim uArch:   35  36  37  38  39  40  41
GPGPU-Sim uArch:   42  43  44  45  46  47  48
GPGPU-Sim uArch:   49
GPGPU-Sim uArch: interconnect node reverse map (icntID to shaderID+MemID)
GPGPU-Sim uArch: Memory nodes start from ID: 28
GPGPU-Sim uArch:    0   1   2   3   4   5   6
GPGPU-Sim uArch:    7   8   9  10  11  12  13
GPGPU-Sim uArch:   14  15  16  17  18  19  20
GPGPU-Sim uArch:   21  22  23  24  25  26  27
GPGPU-Sim uArch:   28  29  30  31  32  33  34
GPGPU-Sim uArch:   35  36  37  38  39  40  41
GPGPU-Sim uArch:   42  43  44  45  46  47  48
GPGPU-Sim uArch:   49
c755b4e9e6a1118e2d736bdbb88f76f4  /root/gpgpu-sim_UVMSmart/benchmarks/Managed/hotspot/hotspot
GPGPU-Sim uArch: performance model initialization complete.
GPGPU-Sim PTX: __cudaRegisterFatBinary, fat_cubin_handle = 1, filename=default
self exe links to: /root/gpgpu-sim_UVMSmart/benchmarks/Managed/hotspot/hotspot
Running md5sum using "md5sum /root/gpgpu-sim_UVMSmart/benchmarks/Managed/hotspot/hotspot "
Parsing file _cuobjdump_complete_output_v5oHuQ
######### cuobjdump parser ########
## Adding new section ELF
Adding arch: sm_20
Adding identifier: default
## Adding new section ELF
Adding arch: sm_20
Adding identifier: default
## Adding new section PTX
Adding ptx filename: _cuobjdump_1.ptx
Adding arch: sm_20
Adding identifier: default
Done parsing!!!
GPGPU-Sim PTX: __cudaRegisterFunction _Z14calculate_tempiPfS_S_iiiiffffff : hostFun 0x0x401ae2, fat_cubin_handle = 1
GPGPU-Sim PTX: allocating shared region for "_Z14calculate_tempiPfS_S_iiiiffffff$__cuda_local_var_16165_39_non_const_temp_on_cuda" from 0x0 to 0x400 (shared memory space)
GPGPU-Sim PTX: allocating shared region for "_Z14calculate_tempiPfS_S_iiiiffffff$__cuda_local_var_16166_39_non_const_power_on_cuda" from 0x400 to 0x800 (shared memory space)
GPGPU-Sim PTX: allocating shared region for "_Z14calculate_tempiPfS_S_iiiiffffff$__cuda_local_var_16167_39_non_const_temp_t" from 0x800 to 0xc00 (shared memory space)
GPGPU-Sim PTX: instruction assembly for function '_Z14calculate_tempiPfS_S_iiiiffffff'...   done.
GPGPU-Sim PTX: finding reconvergence points for '_Z14calculate_tempiPfS_S_iiiiffffff'...
GPGPU-Sim PTX: Finding dominators for '_Z14calculate_tempiPfS_S_iiiiffffff'...
GPGPU-Sim PTX: Finding immediate dominators for '_Z14calculate_tempiPfS_S_iiiiffffff'...
GPGPU-Sim PTX: Finding postdominators for '_Z14calculate_tempiPfS_S_iiiiffffff'...
GPGPU-Sim PTX: Finding immediate postdominators for '_Z14calculate_tempiPfS_S_iiiiffffff'...
GPGPU-Sim PTX: pre-decoding instructions for '_Z14calculate_tempiPfS_S_iiiiffffff'...
GPGPU-Sim PTX: reconvergence points for _Z14calculate_tempiPfS_S_iiiiffffff...
GPGPU-Sim PTX:  1 (potential) branch divergence @  PC=0x118 (_1.ptx:82) @!%p7 bra BB0_2;
GPGPU-Sim PTX:    immediate post dominator      @  PC=0x1b8 (_1.ptx:106) bar.sync 0;
GPGPU-Sim PTX:  2 (potential) branch divergence @  PC=0x120 (_1.ptx:83) bra.uni BB0_1;
GPGPU-Sim PTX:    immediate post dominator      @  PC=0x128 (_1.ptx:86) mad.lo.s32 %r27, %r1, %r10, %r2;
GPGPU-Sim PTX:  3 (potential) branch divergence @  PC=0x1c8 (_1.ptx:108) @%p8 bra BB0_11;
GPGPU-Sim PTX:    immediate post dominator      @  PC=0x5b0 (_1.ptx:247) and.b16 %rs7, %rs8, 255;
GPGPU-Sim PTX:  4 (potential) branch divergence @  PC=0x338 (_1.ptx:157) @!%p15 bra BB0_7;
GPGPU-Sim PTX:    immediate post dominator      @  PC=0x538 (_1.ptx:226) bar.sync 0;
GPGPU-Sim PTX:  5 (potential) branch divergence @  PC=0x340 (_1.ptx:158) bra.uni BB0_5;
GPGPU-Sim PTX:    immediate post dominator      @  PC=0x348 (_1.ptx:161) setp.gt.s32%p16, %r23, %r6;
GPGPU-Sim PTX:  6 (potential) branch divergence @  PC=0x3d0 (_1.ptx:178) @%p28 bra BB0_7;
GPGPU-Sim PTX:    immediate post dominator      @  PC=0x538 (_1.ptx:226) bar.sync 0;
GPGPU-Sim PTX:  7 (potential) branch divergence @  PC=0x548 (_1.ptx:228) @%p31 bra BB0_11;
GPGPU-Sim PTX:    immediate post dominator      @  PC=0x5b0 (_1.ptx:247) and.b16 %rs7, %rs8, 255;
GPGPU-Sim PTX:  8 (potential) branch divergence @  PC=0x558 (_1.ptx:231) @%p32 bra BB0_10;
GPGPU-Sim PTX:    immediate post dominator      @  PC=0x590 (_1.ptx:241) bar.sync 0;
GPGPU-Sim PTX:  9 (potential) branch divergence @  PC=0x5a8 (_1.ptx:244) @%p33 bra BB0_4;
GPGPU-Sim PTX:    immediate post dominator      @  PC=0x5b0 (_1.ptx:247) and.b16 %rs7, %rs8, 255;
GPGPU-Sim PTX: 10 (potential) branch divergence @  PC=0x5c0 (_1.ptx:249) @%p34 bra BB0_13;
GPGPU-Sim PTX:    immediate post dominator      @  PC=0x620 (_1.ptx:264) ret;
GPGPU-Sim PTX: ... end of reconvergence points for _Z14calculate_tempiPfS_S_iiiiffffff
GPGPU-Sim PTX: ... done pre-decoding instructions for '_Z14calculate_tempiPfS_S_iiiiffffff'.
GPGPU-Sim PTX: finished parsing EMBEDDED .ptx file _1.ptx
Adding _cuobjdump_1.ptx with cubin handle 1
GPGPU-Sim PTX: extracting embedded .ptx to temporary file "_ptx_unFfq1"
Running: cat _ptx_unFfq1 | sed 's/.version 1.5/.version 1.4/' | sed 's/, texmode_independent//' | sed 's/\(\.extern \.const\[1\] .b8 \w\+\)\[\]/\1\[1\]/' | sed 's/const\[.\]/const\[0\]/g' > _ptx2_RlcPlc
GPGPU-Sim PTX: generating ptxinfo using "$CUDA_INSTALL_PATH/bin/ptxas --gpu-name=sm_20 -v _ptx2_RlcPlc --output-file  /dev/null 2> _ptx_unFfq1info"
GPGPU-Sim PTX: Kernel '_Z14calculate_tempiPfS_S_iiiiffffff' : regs=34, lmem=0, smem=3072, cmem=120
GPGPU-Sim PTX: removing ptxinfo using "rm -f _ptx_unFfq1 _ptx2_RlcPlc _ptx_unFfq1info"
GPGPU-Sim PTX: loading globals with explicit initializers... 
GPGPU-Sim PTX: finished loading globals (0 bytes total).
GPGPU-Sim PTX: loading constants with explicit initializers...  done.
WG size of kernel = 16 X 16
pyramidHeight: 2
gridSize: [1024, 1024]
border:[2, 2]
blockGrid:[86, 86]
targetBlock:[12, 12]
Start computing the transient temperature

GPGPU-Sim PTX: cudaLaunch for 0x0x401ae2 (mode=performance simulation) on stream 0
GPGPU-Sim PTX: pushing kernel '_Z14calculate_tempiPfS_S_iiiiffffff' to stream 0, gridDim= (86,86,1) blockDim = (16,16,1) 
GPGPU-Sim uArch: Shader 1 bind to kernel 1 '_Z14calculate_tempiPfS_S_iiiiffffff'
GPGPU-Sim uArch: CTA/core = 7, limited by: regs
GPGPU-Sim uArch: Shader 2 bind to kernel 1 '_Z14calculate_tempiPfS_S_iiiiffffff'
GPGPU-Sim uArch: Shader 3 bind to kernel 1 '_Z14calculate_tempiPfS_S_iiiiffffff'
GPGPU-Sim uArch: Shader 4 bind to kernel 1 '_Z14calculate_tempiPfS_S_iiiiffffff'
GPGPU-Sim uArch: Shader 5 bind to kernel 1 '_Z14calculate_tempiPfS_S_iiiiffffff'
GPGPU-Sim uArch: Shader 6 bind to kernel 1 '_Z14calculate_tempiPfS_S_iiiiffffff'
GPGPU-Sim uArch: Shader 7 bind to kernel 1 '_Z14calculate_tempiPfS_S_iiiiffffff'
GPGPU-Sim uArch: Shader 8 bind to kernel 1 '_Z14calculate_tempiPfS_S_iiiiffffff'
GPGPU-Sim uArch: Shader 9 bind to kernel 1 '_Z14calculate_tempiPfS_S_iiiiffffff'
GPGPU-Sim uArch: Shader 10 bind to kernel 1 '_Z14calculate_tempiPfS_S_iiiiffffff'
GPGPU-Sim uArch: Shader 11 bind to kernel 1 '_Z14calculate_tempiPfS_S_iiiiffffff'
GPGPU-Sim uArch: Shader 12 bind to kernel 1 '_Z14calculate_tempiPfS_S_iiiiffffff'
GPGPU-Sim uArch: Shader 13 bind to kernel 1 '_Z14calculate_tempiPfS_S_iiiiffffff'
GPGPU-Sim uArch: Shader 14 bind to kernel 1 '_Z14calculate_tempiPfS_S_iiiiffffff'
GPGPU-Sim uArch: Shader 15 bind to kernel 1 '_Z14calculate_tempiPfS_S_iiiiffffff'
GPGPU-Sim uArch: Shader 16 bind to kernel 1 '_Z14calculate_tempiPfS_S_iiiiffffff'
GPGPU-Sim uArch: Shader 17 bind to kernel 1 '_Z14calculate_tempiPfS_S_iiiiffffff'
GPGPU-Sim uArch: Shader 18 bind to kernel 1 '_Z14calculate_tempiPfS_S_iiiiffffff'
GPGPU-Sim uArch: Shader 19 bind to kernel 1 '_Z14calculate_tempiPfS_S_iiiiffffff'
GPGPU-Sim uArch: Shader 20 bind to kernel 1 '_Z14calculate_tempiPfS_S_iiiiffffff'
GPGPU-Sim uArch: Shader 21 bind to kernel 1 '_Z14calculate_tempiPfS_S_iiiiffffff'
GPGPU-Sim uArch: Shader 22 bind to kernel 1 '_Z14calculate_tempiPfS_S_iiiiffffff'
GPGPU-Sim uArch: Shader 23 bind to kernel 1 '_Z14calculate_tempiPfS_S_iiiiffffff'
GPGPU-Sim uArch: Shader 24 bind to kernel 1 '_Z14calculate_tempiPfS_S_iiiiffffff'
GPGPU-Sim uArch: Shader 25 bind to kernel 1 '_Z14calculate_tempiPfS_S_iiiiffffff'
GPGPU-Sim uArch: Shader 26 bind to kernel 1 '_Z14calculate_tempiPfS_S_iiiiffffff'
GPGPU-Sim uArch: Shader 27 bind to kernel 1 '_Z14calculate_tempiPfS_S_iiiiffffff'
GPGPU-Sim uArch: Shader 0 bind to kernel 1 '_Z14calculate_tempiPfS_S_iiiiffffff'
GPGPU-Sim uArch: Shader 1 bind to kernel 1 '_Z14calculate_tempiPfS_S_iiiiffffff'
GPGPU-Sim uArch: Shader 2 bind to kernel 1 '_Z14calculate_tempiPfS_S_iiiiffffff'
GPGPU-Sim uArch: Shader 3 bind to kernel 1 '_Z14calculate_tempiPfS_S_iiiiffffff'
GPGPU-Sim uArch: Shader 4 bind to kernel 1 '_Z14calculate_tempiPfS_S_iiiiffffff'
GPGPU-Sim uArch: Shader 7 bind to kernel 1 '_Z14calculate_tempiPfS_S_iiiiffffff'
GPGPU-Sim uArch: Shader 13 bind to kernel 1 '_Z14calculate_tempiPfS_S_iiiiffffff'
GPGPU-Sim uArch: Shader 15 bind to kernel 1 '_Z14calculate_tempiPfS_S_iiiiffffff'
GPGPU-Sim uArch: Shader 17 bind to kernel 1 '_Z14calculate_tempiPfS_S_iiiiffffff'
GPGPU-Sim uArch: Shader 18 bind to kernel 1 '_Z14calculate_tempiPfS_S_iiiiffffff'
GPGPU-Sim uArch: Shader 21 bind to kernel 1 '_Z14calculate_tempiPfS_S_iiiiffffff'
GPGPU-Sim uArch: Shader 24 bind to kernel 1 '_Z14calculate_tempiPfS_S_iiiiffffff'
GPGPU-Sim uArch: Shader 25 bind to kernel 1 '_Z14calculate_tempiPfS_S_iiiiffffff'
GPGPU-Sim uArch: Shader 27 bind to kernel 1 '_Z14calculate_tempiPfS_S_iiiiffffff'
GPGPU-Sim uArch: Shader 0 bind to kernel 1 '_Z14calculate_tempiPfS_S_iiiiffffff'
GPGPU-Sim uArch: Shader 14 bind to kernel 1 '_Z14calculate_tempiPfS_S_iiiiffffff'
GPGPU-Sim uArch: Shader 15 bind to kernel 1 '_Z14calculate_tempiPfS_S_iiiiffffff'
GPGPU-Sim uArch: Shader 18 bind to kernel 1 '_Z14calculate_tempiPfS_S_iiiiffffff'
GPGPU-Sim uArch: Shader 22 bind to kernel 1 '_Z14calculate_tempiPfS_S_iiiiffffff'
GPGPU-Sim uArch: Shader 23 bind to kernel 1 '_Z14calculate_tempiPfS_S_iiiiffffff'
GPGPU-Sim uArch: Shader 27 bind to kernel 1 '_Z14calculate_tempiPfS_S_iiiiffffff'
GPGPU-Sim uArch: Shader 4 bind to kernel 1 '_Z14calculate_tempiPfS_S_iiiiffffff'
GPGPU-Sim uArch: Shader 8 bind to kernel 1 '_Z14calculate_tempiPfS_S_iiiiffffff'
GPGPU-Sim uArch: Shader 11 bind to kernel 1 '_Z14calculate_tempiPfS_S_iiiiffffff'
GPGPU-Sim uArch: Shader 12 bind to kernel 1 '_Z14calculate_tempiPfS_S_iiiiffffff'
GPGPU-Sim uArch: Shader 13 bind to kernel 1 '_Z14calculate_tempiPfS_S_iiiiffffff'
GPGPU-Sim uArch: Shader 15 bind to kernel 1 '_Z14calculate_tempiPfS_S_iiiiffffff'
GPGPU-Sim uArch: Shader 20 bind to kernel 1 '_Z14calculate_tempiPfS_S_iiiiffffff'
GPGPU-Sim uArch: Shader 24 bind to kernel 1 '_Z14calculate_tempiPfS_S_iiiiffffff'
GPGPU-Sim uArch: Shader 4 bind to kernel 1 '_Z14calculate_tempiPfS_S_iiiiffffff'
GPGPU-Sim uArch: Shader 6 bind to kernel 1 '_Z14calculate_tempiPfS_S_iiiiffffff'
GPGPU-Sim uArch: Shader 12 bind to kernel 1 '_Z14calculate_tempiPfS_S_iiiiffffff'
GPGPU-Sim uArch: Shader 13 bind to kernel 1 '_Z14calculate_tempiPfS_S_iiiiffffff'
GPGPU-Sim uArch: Shader 22 bind to kernel 1 '_Z14calculate_tempiPfS_S_iiiiffffff'
GPGPU-Sim uArch: Shader 24 bind to kernel 1 '_Z14calculate_tempiPfS_S_iiiiffffff'
GPGPU-Sim uArch: Shader 9 bind to kernel 1 '_Z14calculate_tempiPfS_S_iiiiffffff'
GPGPU-Sim uArch: Shader 10 bind to kernel 1 '_Z14calculate_tempiPfS_S_iiiiffffff'
GPGPU-Sim uArch: Shader 11 bind to kernel 1 '_Z14calculate_tempiPfS_S_iiiiffffff'
GPGPU-Sim uArch: Shader 12 bind to kernel 1 '_Z14calculate_tempiPfS_S_iiiiffffff'
GPGPU-Sim uArch: Shader 13 bind to kernel 1 '_Z14calculate_tempiPfS_S_iiiiffffff'
GPGPU-Sim uArch: Shader 15 bind to kernel 1 '_Z14calculate_tempiPfS_S_iiiiffffff'
GPGPU-Sim uArch: Shader 16 bind to kernel 1 '_Z14calculate_tempiPfS_S_iiiiffffff'
GPGPU-Sim uArch: Shader 18 bind to kernel 1 '_Z14calculate_tempiPfS_S_iiiiffffff'
GPGPU-Sim uArch: Shader 19 bind to kernel 1 '_Z14calculate_tempiPfS_S_iiiiffffff'
GPGPU-Sim uArch: Shader 20 bind to kernel 1 '_Z14calculate_tempiPfS_S_iiiiffffff'
GPGPU-Sim uArch: Shader 22 bind to kernel 1 '_Z14calculate_tempiPfS_S_iiiiffffff'
GPGPU-Sim uArch: Shader 24 bind to kernel 1 '_Z14calculate_tempiPfS_S_iiiiffffff'
GPGPU-Sim uArch: Shader 26 bind to kernel 1 '_Z14calculate_tempiPfS_S_iiiiffffff'
GPGPU-Sim uArch: Shader 27 bind to kernel 1 '_Z14calculate_tempiPfS_S_iiiiffffff'
GPGPU-Sim uArch: Shader 0 bind to kernel 1 '_Z14calculate_tempiPfS_S_iiiiffffff'
GPGPU-Sim uArch: Shader 1 bind to kernel 1 '_Z14calculate_tempiPfS_S_iiiiffffff'
GPGPU-Sim uArch: Shader 4 bind to kernel 1 '_Z14calculate_tempiPfS_S_iiiiffffff'
GPGPU-Sim uArch: Shader 6 bind to kernel 1 '_Z14calculate_tempiPfS_S_iiiiffffff'
GPGPU-Sim uArch: Shader 7 bind to kernel 1 '_Z14calculate_tempiPfS_S_iiiiffffff'
GPGPU-Sim uArch: Shader 9 bind to kernel 1 '_Z14calculate_tempiPfS_S_iiiiffffff'
GPGPU-Sim uArch: Shader 14 bind to kernel 1 '_Z14calculate_tempiPfS_S_iiiiffffff'
GPGPU-Sim uArch: Shader 17 bind to kernel 1 '_Z14calculate_tempiPfS_S_iiiiffffff'
GPGPU-Sim uArch: Shader 21 bind to kernel 1 '_Z14calculate_tempiPfS_S_iiiiffffff'
GPGPU-Sim uArch: Shader 23 bind to kernel 1 '_Z14calculate_tempiPfS_S_iiiiffffff'
GPGPU-Sim uArch: Shader 25 bind to kernel 1 '_Z14calculate_tempiPfS_S_iiiiffffff'
GPGPU-Sim uArch: Shader 3 bind to kernel 1 '_Z14calculate_tempiPfS_S_iiiiffffff'
GPGPU-Sim uArch: Shader 5 bind to kernel 1 '_Z14calculate_tempiPfS_S_iiiiffffff'
GPGPU-Sim uArch: Shader 7 bind to kernel 1 '_Z14calculate_tempiPfS_S_iiiiffffff'
GPGPU-Sim uArch: Shader 22 bind to kernel 1 '_Z14calculate_tempiPfS_S_iiiiffffff'
GPGPU-Sim uArch: Shader 27 bind to kernel 1 '_Z14calculate_tempiPfS_S_iiiiffffff'
GPGPU-Sim uArch: Shader 22 bind to kernel 1 '_Z14calculate_tempiPfS_S_iiiiffffff'
GPGPU-Sim uArch: Shader 23 bind to kernel 1 '_Z14calculate_tempiPfS_S_iiiiffffff'
GPGPU-Sim uArch: Shader 24 bind to kernel 1 '_Z14calculate_tempiPfS_S_iiiiffffff'
GPGPU-Sim uArch: Shader 25 bind to kernel 1 '_Z14calculate_tempiPfS_S_iiiiffffff'
GPGPU-Sim uArch: Shader 26 bind to kernel 1 '_Z14calculate_tempiPfS_S_iiiiffffff'
GPGPU-Sim uArch: Shader 27 bind to kernel 1 '_Z14calculate_tempiPfS_S_iiiiffffff'
GPGPU-Sim uArch: Shader 0 bind to kernel 1 '_Z14calculate_tempiPfS_S_iiiiffffff'
GPGPU-Sim uArch: Shader 1 bind to kernel 1 '_Z14calculate_tempiPfS_S_iiiiffffff'
GPGPU-Sim uArch: Shader 2 bind to kernel 1 '_Z14calculate_tempiPfS_S_iiiiffffff'
GPGPU-Sim uArch: Shader 3 bind to kernel 1 '_Z14calculate_tempiPfS_S_iiiiffffff'
GPGPU-Sim uArch: Shader 4 bind to kernel 1 '_Z14calculate_tempiPfS_S_iiiiffffff'
GPGPU-Sim uArch: Shader 5 bind to kernel 1 '_Z14calculate_tempiPfS_S_iiiiffffff'
GPGPU-Sim uArch: Shader 6 bind to kernel 1 '_Z14calculate_tempiPfS_S_iiiiffffff'
GPGPU-Sim uArch: Shader 7 bind to kernel 1 '_Z14calculate_tempiPfS_S_iiiiffffff'
GPGPU-Sim uArch: Shader 8 bind to kernel 1 '_Z14calculate_tempiPfS_S_iiiiffffff'
GPGPU-Sim uArch: Shader 9 bind to kernel 1 '_Z14calculate_tempiPfS_S_iiiiffffff'
GPGPU-Sim uArch: Shader 10 bind to kernel 1 '_Z14calculate_tempiPfS_S_iiiiffffff'
GPGPU-Sim uArch: Shader 11 bind to kernel 1 '_Z14calculate_tempiPfS_S_iiiiffffff'
GPGPU-Sim uArch: Shader 12 bind to kernel 1 '_Z14calculate_tempiPfS_S_iiiiffffff'
GPGPU-Sim uArch: Shader 13 bind to kernel 1 '_Z14calculate_tempiPfS_S_iiiiffffff'
GPGPU-Sim uArch: Shader 14 bind to kernel 1 '_Z14calculate_tempiPfS_S_iiiiffffff'
GPGPU-Sim uArch: Shader 15 bind to kernel 1 '_Z14calculate_tempiPfS_S_iiiiffffff'
GPGPU-Sim uArch: Shader 16 bind to kernel 1 '_Z14calculate_tempiPfS_S_iiiiffffff'
GPGPU-Sim uArch: Shader 17 bind to kernel 1 '_Z14calculate_tempiPfS_S_iiiiffffff'
GPGPU-Sim uArch: Shader 18 bind to kernel 1 '_Z14calculate_tempiPfS_S_iiiiffffff'
GPGPU-Sim uArch: Shader 19 bind to kernel 1 '_Z14calculate_tempiPfS_S_iiiiffffff'
GPGPU-Sim uArch: Shader 20 bind to kernel 1 '_Z14calculate_tempiPfS_S_iiiiffffff'
GPGPU-Sim uArch: Shader 21 bind to kernel 1 '_Z14calculate_tempiPfS_S_iiiiffffff'
Destroy streams for kernel 1: size 0
kernel_name = _Z14calculate_tempiPfS_S_iiiiffffff 
kernel_launch_uid = 1 
gpu_sim_cycle = 2015450
gpu_sim_insn = 415466464
gpu_ipc =     206.1408
gpu_tot_sim_cycle = 2237600
gpu_tot_sim_insn = 415466464
gpu_tot_ipc =     185.6750
gpu_tot_issued_cta = 7396
max_total_param_size = 0
gpu_stall_dramfull = 52036
gpu_stall_icnt2sh    = 605126
partiton_reqs_in_parallel = 44287864
partiton_reqs_in_parallel_total    = 0
partiton_level_parallism =      21.9742
partiton_level_parallism_total  =      19.7926
partiton_reqs_in_parallel_util = 44287864
partiton_reqs_in_parallel_util_total    = 0
gpu_sim_cycle_parition_util = 2014826
gpu_tot_sim_cycle_parition_util    = 0
partiton_level_parallism_util =      21.9810
partiton_level_parallism_util_total  =      21.9810
partiton_replys_in_parallel = 456444
partiton_replys_in_parallel_total    = 0
L2_BW  =      21.4660 GB/Sec
L2_BW_total  =      19.3348 GB/Sec
gpu_total_sim_rate=153705

========= Core cache stats =========
L1I_cache:
	L1I_total_cache_accesses = 7740000
	L1I_total_cache_misses = 8688
	L1I_total_cache_miss_rate = 0.0011
	L1I_total_cache_pending_hits = 0
	L1I_total_cache_reservation_fails = 6846
L1D_cache:
	L1D_cache_core[0]: Access = 0, Miss = 0, Miss_rate = -nan, Pending_hits = 0, Reservation_fails = 0
	L1D_cache_core[1]: Access = 0, Miss = 0, Miss_rate = -nan, Pending_hits = 0, Reservation_fails = 0
	L1D_cache_core[2]: Access = 0, Miss = 0, Miss_rate = -nan, Pending_hits = 0, Reservation_fails = 0
	L1D_cache_core[3]: Access = 0, Miss = 0, Miss_rate = -nan, Pending_hits = 0, Reservation_fails = 0
	L1D_cache_core[4]: Access = 0, Miss = 0, Miss_rate = -nan, Pending_hits = 0, Reservation_fails = 0
	L1D_cache_core[5]: Access = 0, Miss = 0, Miss_rate = -nan, Pending_hits = 0, Reservation_fails = 0
	L1D_cache_core[6]: Access = 0, Miss = 0, Miss_rate = -nan, Pending_hits = 0, Reservation_fails = 0
	L1D_cache_core[7]: Access = 0, Miss = 0, Miss_rate = -nan, Pending_hits = 0, Reservation_fails = 0
	L1D_cache_core[8]: Access = 0, Miss = 0, Miss_rate = -nan, Pending_hits = 0, Reservation_fails = 0
	L1D_cache_core[9]: Access = 0, Miss = 0, Miss_rate = -nan, Pending_hits = 0, Reservation_fails = 0
	L1D_cache_core[10]: Access = 0, Miss = 0, Miss_rate = -nan, Pending_hits = 0, Reservation_fails = 0
	L1D_cache_core[11]: Access = 0, Miss = 0, Miss_rate = -nan, Pending_hits = 0, Reservation_fails = 0
	L1D_cache_core[12]: Access = 0, Miss = 0, Miss_rate = -nan, Pending_hits = 0, Reservation_fails = 0
	L1D_cache_core[13]: Access = 0, Miss = 0, Miss_rate = -nan, Pending_hits = 0, Reservation_fails = 0
	L1D_cache_core[14]: Access = 0, Miss = 0, Miss_rate = -nan, Pending_hits = 0, Reservation_fails = 0
	L1D_cache_core[15]: Access = 0, Miss = 0, Miss_rate = -nan, Pending_hits = 0, Reservation_fails = 0
	L1D_cache_core[16]: Access = 0, Miss = 0, Miss_rate = -nan, Pending_hits = 0, Reservation_fails = 0
	L1D_cache_core[17]: Access = 0, Miss = 0, Miss_rate = -nan, Pending_hits = 0, Reservation_fails = 0
	L1D_cache_core[18]: Access = 0, Miss = 0, Miss_rate = -nan, Pending_hits = 0, Reservation_fails = 0
	L1D_cache_core[19]: Access = 0, Miss = 0, Miss_rate = -nan, Pending_hits = 0, Reservation_fails = 0
	L1D_cache_core[20]: Access = 0, Miss = 0, Miss_rate = -nan, Pending_hits = 0, Reservation_fails = 0
	L1D_cache_core[21]: Access = 0, Miss = 0, Miss_rate = -nan, Pending_hits = 0, Reservation_fails = 0
	L1D_cache_core[22]: Access = 0, Miss = 0, Miss_rate = -nan, Pending_hits = 0, Reservation_fails = 0
	L1D_cache_core[23]: Access = 0, Miss = 0, Miss_rate = -nan, Pending_hits = 0, Reservation_fails = 0
	L1D_cache_core[24]: Access = 0, Miss = 0, Miss_rate = -nan, Pending_hits = 0, Reservation_fails = 0
	L1D_cache_core[25]: Access = 0, Miss = 0, Miss_rate = -nan, Pending_hits = 0, Reservation_fails = 0
	L1D_cache_core[26]: Access = 0, Miss = 0, Miss_rate = -nan, Pending_hits = 0, Reservation_fails = 0
	L1D_cache_core[27]: Access = 0, Miss = 0, Miss_rate = -nan, Pending_hits = 0, Reservation_fails = 0
	L1D_total_cache_accesses = 0
	L1D_total_cache_misses = 0
	L1D_total_cache_pending_hits = 0
	L1D_total_cache_reservation_fails = 0
	L1D_cache_data_port_util = 0.000
	L1D_cache_fill_port_util = 0.000
L1C_cache:
	L1C_total_cache_accesses = 769184
	L1C_total_cache_misses = 2195
	L1C_total_cache_miss_rate = 0.0029
	L1C_total_cache_pending_hits = 0
	L1C_total_cache_reservation_fails = 4886
L1T_cache:
	L1T_total_cache_accesses = 0
	L1T_total_cache_misses = 0
	L1T_total_cache_pending_hits = 0
	L1T_total_cache_reservation_fails = 0

Total_core_cache_stats:
	Total_core_cache_stats_breakdown[GLOBAL_ACC_R][HIT] = 0
	Total_core_cache_stats_breakdown[GLOBAL_ACC_R][HIT_RESERVED] = 0
	Total_core_cache_stats_breakdown[GLOBAL_ACC_R][MISS] = 0
	Total_core_cache_stats_breakdown[GLOBAL_ACC_R][RESERVATION_FAIL] = 0
	Total_core_cache_stats_breakdown[LOCAL_ACC_R][HIT] = 0
	Total_core_cache_stats_breakdown[LOCAL_ACC_R][HIT_RESERVED] = 0
	Total_core_cache_stats_breakdown[LOCAL_ACC_R][MISS] = 0
	Total_core_cache_stats_breakdown[LOCAL_ACC_R][RESERVATION_FAIL] = 0
	Total_core_cache_stats_breakdown[CONST_ACC_R][HIT] = 766989
	Total_core_cache_stats_breakdown[CONST_ACC_R][HIT_RESERVED] = 0
	Total_core_cache_stats_breakdown[CONST_ACC_R][MISS] = 2195
	Total_core_cache_stats_breakdown[CONST_ACC_R][RESERVATION_FAIL] = 4886
	Total_core_cache_stats_breakdown[TEXTURE_ACC_R][HIT] = 0
	Total_core_cache_stats_breakdown[TEXTURE_ACC_R][HIT_RESERVED] = 0
	Total_core_cache_stats_breakdown[TEXTURE_ACC_R][MISS] = 0
	Total_core_cache_stats_breakdown[TEXTURE_ACC_R][RESERVATION_FAIL] = 0
	Total_core_cache_stats_breakdown[GLOBAL_ACC_W][HIT] = 0
	Total_core_cache_stats_breakdown[GLOBAL_ACC_W][HIT_RESERVED] = 0
	Total_core_cache_stats_breakdown[GLOBAL_ACC_W][MISS] = 0
	Total_core_cache_stats_breakdown[GLOBAL_ACC_W][RESERVATION_FAIL] = 0
	Total_core_cache_stats_breakdown[LOCAL_ACC_W][HIT] = 0
	Total_core_cache_stats_breakdown[LOCAL_ACC_W][HIT_RESERVED] = 0
	Total_core_cache_stats_breakdown[LOCAL_ACC_W][MISS] = 0
	Total_core_cache_stats_breakdown[LOCAL_ACC_W][RESERVATION_FAIL] = 0
	Total_core_cache_stats_breakdown[L1_WRBK_ACC][HIT] = 0
	Total_core_cache_stats_breakdown[L1_WRBK_ACC][HIT_RESERVED] = 0
	Total_core_cache_stats_breakdown[L1_WRBK_ACC][MISS] = 0
	Total_core_cache_stats_breakdown[L1_WRBK_ACC][RESERVATION_FAIL] = 0
	Total_core_cache_stats_breakdown[L2_WRBK_ACC][HIT] = 0
	Total_core_cache_stats_breakdown[L2_WRBK_ACC][HIT_RESERVED] = 0
	Total_core_cache_stats_breakdown[L2_WRBK_ACC][MISS] = 0
	Total_core_cache_stats_breakdown[L2_WRBK_ACC][RESERVATION_FAIL] = 0
	Total_core_cache_stats_breakdown[INST_ACC_R][HIT] = 7731312
	Total_core_cache_stats_breakdown[INST_ACC_R][HIT_RESERVED] = 0
	Total_core_cache_stats_breakdown[INST_ACC_R][MISS] = 8688
	Total_core_cache_stats_breakdown[INST_ACC_R][RESERVATION_FAIL] = 6846
	Total_core_cache_stats_breakdown[L1_WR_ALLOC_R][HIT] = 0
	Total_core_cache_stats_breakdown[L1_WR_ALLOC_R][HIT_RESERVED] = 0
	Total_core_cache_stats_breakdown[L1_WR_ALLOC_R][MISS] = 0
	Total_core_cache_stats_breakdown[L1_WR_ALLOC_R][RESERVATION_FAIL] = 0
	Total_core_cache_stats_breakdown[L2_WR_ALLOC_R][HIT] = 0
	Total_core_cache_stats_breakdown[L2_WR_ALLOC_R][HIT_RESERVED] = 0
	Total_core_cache_stats_breakdown[L2_WR_ALLOC_R][MISS] = 0
	Total_core_cache_stats_breakdown[L2_WR_ALLOC_R][RESERVATION_FAIL] = 0
	Total_core_cache_stats_breakdown[CONST_ACC_R][TOTAL_ACCESS] = 769184
	Total_core_cache_stats_breakdown[INST_ACC_R][TOTAL_ACCESS] = 7740000
Shader 0 warp_id issue ditsribution:
warp_id:
0, 1, 2, 3, 4, 5, 6, 7, 8, 9, 10, 11, 12, 13, 14, 15, 16, 17, 18, 19, 20, 21, 22, 23, 24, 25, 26, 27, 28, 29, 30, 31, 32, 33, 34, 35, 36, 37, 38, 39, 40, 41, 42, 43, 44, 45, 46, 47, 48, 49, 50, 51, 52, 53, 54, 55, 
distro:
10229, 12901, 12922, 12739, 12781, 12732, 12774, 10258, 9974, 12582, 12602, 12427, 12459, 12415, 12455, 9996, 9480, 11957, 11989, 11946, 11984, 11943, 11980, 9581, 9050, 11326, 11341, 11319, 11338, 11318, 11335, 9080, 9301, 11631, 11659, 11619, 11655, 11614, 11657, 9316, 9058, 11311, 11348, 11168, 11201, 11161, 11197, 8997, 9058, 11330, 11349, 11171, 11197, 11158, 11195, 8992, 
gpgpu_n_tot_thrd_icount = 485326208
gpgpu_n_tot_w_icount = 15166444
gpgpu_n_stall_shd_mem = 392707
gpgpu_n_mem_read_local = 0
gpgpu_n_mem_write_local = 0
gpgpu_n_mem_read_global = 346456
gpgpu_n_mem_write_global = 109568
gpgpu_n_mem_texture = 0
gpgpu_n_mem_const = 56
gpgpu_n_load_insn  = 3720992
gpgpu_n_store_insn = 1048576
gpgpu_n_shmem_insn = 24940324
gpgpu_n_tex_insn = 0
gpgpu_n_const_mem_insn = 0
gpgpu_n_param_mem_insn = 24613888
gpgpu_n_shmem_bkconflict = 0
gpgpu_n_cache_bkconflict = 0
gpgpu_n_intrawarp_mshr_merge = 0
gpgpu_n_cmem_portconflict = 4886
gpgpu_stall_shd_mem[c_mem][bk_conf] = 4886
gpgpu_stall_shd_mem[c_mem][mshr_rc] = 0
gpgpu_stall_shd_mem[c_mem][icnt_rc] = 0
gpgpu_stall_shd_mem[c_mem][data_port_stall] = 0
gpgpu_stall_shd_mem[t_mem][mshr_rc] = 0
gpgpu_stall_shd_mem[t_mem][icnt_rc] = 0
gpgpu_stall_shd_mem[t_mem][data_port_stall] = 0
gpgpu_stall_shd_mem[s_mem][bk_conf] = 0
gpgpu_stall_shd_mem[gl_mem][bk_conf] = 0
gpgpu_stall_shd_mem[gl_mem][coal_stall] = 321139
gpgpu_stall_shd_mem[gl_mem][data_port_stall] = 0
gpgpu_stall_shd_mem[g_mem_ld][mshr_rc] = 0
gpgpu_stall_shd_mem[g_mem_ld][icnt_rc] = 66682
gpgpu_stall_shd_mem[g_mem_ld][wb_icnt_rc] = 0
gpgpu_stall_shd_mem[g_mem_ld][wb_rsrv_fail] = 0
gpgpu_stall_shd_mem[g_mem_st][mshr_rc] = 0
gpgpu_stall_shd_mem[g_mem_st][icnt_rc] = 0
gpgpu_stall_shd_mem[g_mem_st][wb_icnt_rc] = 0
gpgpu_stall_shd_mem[g_mem_st][wb_rsrv_fail] = 0
gpgpu_stall_shd_mem[l_mem_ld][mshr_rc] = 0
gpgpu_stall_shd_mem[l_mem_ld][icnt_rc] = 0
gpgpu_stall_shd_mem[l_mem_ld][wb_icnt_rc] = 0
gpgpu_stall_shd_mem[l_mem_ld][wb_rsrv_fail] = 0
gpgpu_stall_shd_mem[l_mem_st][mshr_rc] = 0
gpgpu_stall_shd_mem[l_mem_st][icnt_rc] = 0
gpgpu_stall_shd_mem[l_mem_ld][wb_icnt_rc] = 0
gpgpu_stall_shd_mem[l_mem_ld][wb_rsrv_fail] = 0
gpu_reg_bank_conflict_stalls = 0
Warp Occupancy Distribution:
Stall:532351	W0_Idle:44836013	W0_Scoreboard:54699227	W1:0	W2:0	W3:0	W4:0	W5:8500	W6:0	W7:0	W8:28160	W9:0	W10:25600	W11:0	W12:12958	W13:8500	W14:714000	W15:0	W16:0	W17:0	W18:0	W19:0	W20:0	W21:0	W22:0	W23:0	W24:3517792	W25:0	W26:25600	W27:0	W28:3287550	W29:0	W30:0	W31:0	W32:7537784
traffic_breakdown_coretomem[CONST_ACC_R] = 448 {8:56,}
traffic_breakdown_coretomem[GLOBAL_ACC_R] = 2771648 {8:346456,}
traffic_breakdown_coretomem[GLOBAL_ACC_W] = 7856128 {40:44032,72:44032,136:21504,}
traffic_breakdown_coretomem[INST_ACC_R] = 2912 {8:364,}
traffic_breakdown_memtocore[CONST_ACC_R] = 4032 {72:56,}
traffic_breakdown_memtocore[GLOBAL_ACC_R] = 28785856 {40:114576,72:114576,136:117304,}
traffic_breakdown_memtocore[GLOBAL_ACC_W] = 876544 {8:109568,}
traffic_breakdown_memtocore[INST_ACC_R] = 49504 {136:364,}
maxmrqlatency = 669 
maxdqlatency = 0 
maxmflatency = 248930 
averagemflatency = 4780 
max_icnt2mem_latency = 248683 
max_icnt2sh_latency = 2237599 
mrq_lat_table:109654 	6127 	6032 	11983 	13055 	12340 	10430 	10315 	9894 	345 	0 	0 	0 	0 	0 	0 	0 	0 	0 	0 	0 	0 	0 	0 	0 	0 	0 	0 	0 	0 	0 	0 	
dq_lat_table:0 	0 	0 	0 	0 	0 	0 	0 	0 	0 	0 	0 	0 	0 	0 	0 	0 	0 	0 	0 	0 	0 	0 	0 	0 	0 	0 	0 	0 	0 	0 	0 	
mf_lat_table:0 	0 	0 	0 	0 	0 	0 	272869 	137329 	3651 	235 	2153 	2512 	3645 	7765 	19166 	5163 	1592 	0 	0 	0 	0 	0 	0 	0 	0 	0 	0 	0 	0 	0 	0 	
icnt2mem_lat_table:0 	0 	229281 	47196 	5129 	1445 	122214 	8729 	218 	5 	420 	1970 	2510 	3754 	8053 	18765 	5163 	1592 	0 	0 	0 	0 	0 	0 	
icnt2sh_lat_table:0 	0 	104208 	150800 	84138 	7277 	89 	0 	0 	0 	0 	0 	0 	0 	0 	0 	0 	0 	12840 	14659 	61097 	20972 	0 	0 	
mf_lat_pw_table:0 	0 	0 	0 	0 	0 	0 	374 	84 	6 	4 	18 	11 	12 	20 	32 	10 	6 	0 	0 	0 	0 	0 	0 	0 	0 	0 	0 	0 	0 	0 	0 	
maximum concurrent accesses to same row:
dram[0]:        69        70        69        70        66        67        69        70        69        70        69        70        68        66        69        70 
dram[1]:        69        70        69        70        66        63        69        70        69        70        69        70        68        65        69        70 
dram[2]:        69        70        69        70        65        65        69        70        69        70        69        70        66        66        69        70 
dram[3]:        69        70        69        70        67        63        69        70        69        70        69        70        64        66        69        70 
dram[4]:        69        70        69        70        65        66        69        70        69        70        69        70        66        65        69        70 
dram[5]:        69        70        69        70        63        66        69        70        69        70        69        70        67        69        69        70 
dram[6]:        69        70        69        70        68        64        69        70        69        70        69        70        69        66        69        70 
dram[7]:        69        70        69        70        64        65        69        70        69        70        69        70        66        66        69        70 
dram[8]:        69        70        69        70        66        64        69        70        69        70        69        70        65        66        69        70 
dram[9]:        69        70        69        70        67        63        69        70        69        70        69        70        64        66        69        70 
dram[10]:        69        70        69        70        64        67        69        70        69        70        69        70        67        66        69        70 
maximum service time to same row:
dram[0]:    247762    247575    381455    258965    256635    256501    422049    422055    377430    377334    376792    254777    251428    251433    250380    250454 
dram[1]:    247588    247297    260131    381639    380110    379942    422111    422113    377548    377494    254719    254966    251468    251474    250387    250220 
dram[2]:    247740    247529    381451    381416    379306    379289    422013    422051    377556    377419    254988    255040    251516    251536    250346    249816 
dram[3]:    247766    247554    381424    381336    256386    256693    422062    422066    377310    377428    254909    254971    251372    251408    250743    250980 
dram[4]:    247764    247570    381288    381631    256542    256699    422033    421805    377542    377553    254875    254522    251474    251422    250898    250972 
dram[5]:    247761    247572    381537    381538    256636    256483    421889    422176    377452    377398    254721    254723    251426    251433    250779    250596 
dram[6]:    247589    247293    381454    381455    380095    379806    422050    422011    377430    377400    376319    255001    251466    251477    250651    250360 
dram[7]:    246018    245447    381409    381305    379993    379965    421943    422112    377446    377268    255005    254974    251514    251486    250107    249818 
dram[8]:    247783    247534    381292    381199    256532    256576    422104    422042    377329    377370    254911    254920    251408    251432    250754    251020 
dram[9]:    247751    247568    381290    381632    256425    256563    422045    421749    377284    377301    255017    254639    251307    251406    251053    251020 
dram[10]:    247778    247572    381541    381539    256823    256448    421873    422176    377262    377270    254760    254761    251430    251416    250797    250855 
average row accesses per activate:
dram[0]: 11.633333 11.063829 10.284314  9.504504 10.184466 10.565657 11.140000 10.053572 10.990196 10.825243 11.173470 10.438095 11.020409 10.811881 13.645570 12.363636 
dram[1]: 12.127907 13.050000 10.575758 11.138298 12.710843 11.560439 11.120000 10.509434 11.705263 11.099010 11.741936 11.381443 11.645162 11.393617 15.600000 13.873418 
dram[2]: 12.634147 12.104651 10.968750 11.423913 11.301075 11.376344 11.009901 12.449438 10.552381 12.021505 12.929412 11.903226 12.674418 12.448276 16.298508 15.394366 
dram[3]: 13.500000 13.684211 10.683674 12.174418 12.734940 11.582417 13.202381 11.978261 11.778948 13.235294 13.390244 12.835294 12.744186 12.697675 14.945206 15.267606 
dram[4]: 11.555555 11.931034  9.572727 10.215686 11.105263 12.435294 12.021739 12.054348 11.212121 11.424242 11.741936 12.112360 12.764706 12.166667 16.651516 14.342105 
dram[5]: 11.010527 11.139785  9.750000  9.675926 10.000000  9.660550 11.326530 10.778846 10.401869 10.256881 10.930000 11.463158 11.879121 10.920000 12.375000 12.340909 
dram[6]: 12.282353 10.915790 12.523809 11.875000 11.921349 10.194175 11.285714 10.650944 11.130000 11.541667 12.697675 11.817204 11.623656 11.061225 14.276316 13.365853 
dram[7]: 12.658537 12.925926 12.817073 13.125000 10.814433 11.397849 12.602273 13.397591 11.412371 12.053763 13.555555 12.724138 11.602151 11.602151 14.600000 14.560000 
dram[8]: 13.113924 11.764045 11.095745 12.174418 11.387096 10.886598 13.070588 12.382023 11.069307 11.800000 13.625000 13.750000 11.617022 12.295455 15.366198 14.342105 
dram[9]: 12.176471 11.931034 10.235294 10.313725 10.717172 11.168421 12.333333 12.837210 12.064516 12.395604 13.072289 12.741177 11.638298 11.913043 15.263889 13.650000 
dram[10]: 10.947369 11.031915  9.943397 10.550000 10.646464 10.504951 12.333333 11.306123 10.901960 10.836538 12.166667 11.563829 11.826087 11.122449 13.047619 12.494253 
average row locality = 190175/16081 = 11.826068
number of total memory accesses made:
dram[0]:         0         0         0         0         0         0         0         0         0         0         0         0         0         0         0         0 
dram[1]:         0         0         0         0         0         0         0         0         0         0         0         0         0         0         0         0 
dram[2]:         0         0         0         0         0         0         0         0         0         0         0         0         0         0         0         0 
dram[3]:         0         0         0         0         0         0         0         0         0         0         0         0         0         0         0         0 
dram[4]:         0         0         0         0         0         0         0         0         0         0         0         0         0         0         0         0 
dram[5]:         0         0         0         0         0         0         0         0         0         0         0         0         0         0         0         0 
dram[6]:         0         0         0         0         0         0         0         0         0         0         0         0         0         0         0         0 
dram[7]:         0         0         0         0         0         0         0         0         0         0         0         0         0         0         0         0 
dram[8]:         0         0         0         0         0         0         0         0         0         0         0         0         0         0         0         0 
dram[9]:         0         0         0         0         0         0         0         0         0         0         0         0         0         0         0         0 
dram[10]:         0         0         0         0         0         0         0         0         0         0         0         0         0         0         0         0 
total accesses: 0
min_bank_accesses = 0!
min_chip_accesses = 0!
number of total read accesses:
dram[0]:       561       560       560       560       560       560       560       560       560       560       548       548       560       560       560       560 
dram[1]:       560       560       560       560       560       560       560       560       560       560       549       549       560       560       560       560 
dram[2]:       560       560       560       560       560       560       560       560       560       560       549       549       560       560       560       560 
dram[3]:       560       560       560       560       560       560       560       560       560       560       549       549       560       560       560       560 
dram[4]:       560       560       560       560       560       560       560       560       560       560       549       549       560       560       561       561 
dram[5]:       560       560       560       560       560       560       560       560       560       560       548       548       560       560       561       561 
dram[6]:       560       560       560       560       560       560       560       560       560       560       548       548       560       560       561       561 
dram[7]:       560       560       560       560       560       560       560       560       560       560       548       548       560       560       561       561 
dram[8]:       560       560       560       560       560       560       560       560       560       560       548       548       560       560       561       561 
dram[9]:       560       560       560       560       560       560       560       560       560       560       548       548       560       560       561       561 
dram[10]:       560       560       560       560       560       560       560       560       560       560       548       548       560       560       561       560 
total reads: 98318
bank skew: 561/548 = 1.02
chip skew: 8940/8937 = 1.00
number of total write accesses:
dram[0]:       486       480       489       495       489       486       554       566       561       555       547       548       520       532       518       528 
dram[1]:       483       484       487       487       495       492       552       554       552       561       543       555       523       511       532       536 
dram[2]:       476       481       493       491       491       498       552       548       548       558       550       558       530       523       532       533 
dram[3]:       466       480       487       487       497       494       549       542       559       565       549       542       536       532       531       524 
dram[4]:       480       478       493       482       495       497       546       549       550       571       543       529       525       535       538       529 
dram[5]:       486       476       493       485       490       493       550       561       553       558       545       541       521       532       528       525 
dram[6]:       484       477       492       485       501       490       546       569       553       548       544       551       521       524       524       535 
dram[7]:       478       487       491       490       489       500       549       552       547       561       550       559       519       519       534       531 
dram[8]:       476       487       483       487       499       496       551       542       558       561       542       552       532       522       530       529 
dram[9]:       475       478       484       492       501       501       550       544       562       568       537       535       534       536       538       531 
dram[10]:       480       477       494       495       494       501       550       548       552       567       547       539       528       530       535       527 
total reads: 91857
bank skew: 571/466 = 1.23
chip skew: 8366/8337 = 1.00
average mf latency per bank:
dram[0]:      12878     12616     15937     15451     13671     13532     12098     12255      6796      6686      8604      8478      7524      7978     14485     14401
dram[1]:      13352     13341     15275     15368     13811     13733     12339     12463      6895      6736      8662      8438      7630      7941     14683     14934
dram[2]:      13286     13215     15183     15290     13596     13621     12464     12478      6728      6338      8548      8541      8055      8096     14677     14592
dram[3]:      13706     13063     15035     15268     13764     13369     12163     12292      6802      6489      8738      8778      7883      8020     14391     14448
dram[4]:      13595     13595     14504     14561     14260     14316     11909     11817      6803      6492      8357      8116      8032      7811     13962     14190
dram[5]:      13549     13934     14762     15103     14440     14259     11646     11735      6994      6849      7870      7800      8064      8187     13886     14064
dram[6]:      13844     13075     15120     15123     14339     13979     11874     11985      7098      6950      8683      8715      7748      8108     14687     14912
dram[7]:      13245     13548     15072     14922     14193     14202     12716     12884      6889      6457      8773      8604      8051      7962     14654     14649
dram[8]:      13676     13232     15268     15344     13835     13716     12734     12677      6486      6215      8501      8375      7886      8016     14394     14534
dram[9]:      13816     13439     14720     14907     13558     13093     11933     11839      6677      6364      8704      8605      7808      7751     14771     15078
dram[10]:      13017     13288     15162     15228     13613     13621     11760     11822      6685      6460      8455      8553      7704      7553     14534     14691
maximum mf latency per bank:
dram[0]:     146114    146048    163230    163144    125579    125589    125856    125973    123046    122891    127754    123677    135828    135833    243814    243834
dram[1]:     148399    148447    163084    163209    125593    125553    125904    125763    122986    123019    123668    123667    135789    135648    243800    243829
dram[2]:     148407    148394    126662    126688    125585    125564    125699    125620    123015    122995    123665    123672    135643    135805    243808    243831
dram[3]:     145881    145845    126580    126577    125669    125567    125669    125782    123069    123072    248923    248930    135821    135644    243807    243881
dram[4]:     145786    145815    126485    126312    125680    125625    125440    125558    123051    123004    123669    123667    135626    135478    243809    146118
dram[5]:     146195    146252    163154    163200    125616    125563    125672    125588    123015    122923    248842    123671    135415    135422    146099    145947
dram[6]:     148463    148345    163159    163143    125563    125523    125464    125629    123043    123003    123670    123667    135861    135818    146240    146226
dram[7]:     148397    148457    126644    126662    125574    125544    126191    126071    122982    123015    123662    123659    135775    135633    146194    146224
dram[8]:     148405    148394    126559    126599    125568    125450    126212    126222    123011    123071    123668    123669    135761    135776    146126    146167
dram[9]:     145867    145838    126511    126442    125641    125547    126019    125976    123050    122978    127835    127844    135776    135623    243764    243774
dram[10]:     146200    146200    163150    163209    125580    125525    126026    125912    123024    122964    123664    123667    135631    135469    243797    243810
Memory Partition 0: 
Cache L2_bank_000:
MSHR contents

Cache L2_bank_001:
MSHR contents

In Dram Latency Queue (total = 0): 
DRAM[0]: 16 bks, busW=4 BL=8 CL=12, tRRD=2 tCCD=6, tRCD=12 tRAS=28 tRP=12 tRC=40
n_cmd=3742394 n_nop=3683907 n_act=1586 n_pre=1570 n_req=17291 n_rd=35748 n_write=19583 bw_util=0.02957
n_activity=192522 dram_eff=0.5748
bk0: 2244a 3721184i bk1: 2240a 3719864i bk2: 2240a 3720951i bk3: 2240a 3719321i bk4: 2240a 3721732i bk5: 2240a 3719832i bk6: 2240a 3719749i bk7: 2240a 3718724i bk8: 2240a 3718769i bk9: 2240a 3717913i bk10: 2192a 3719243i bk11: 2192a 3718794i bk12: 2240a 3721216i bk13: 2240a 3719755i bk14: 2240a 3720267i bk15: 2240a 3718718i 
dram_util_bins: 0 0 0 0 0 0 0 0 0 0
dram_eff_bins: 0 0 0 0 0 0 0 0 0 0
mrqq: max=64 avg=0.342033
Memory Partition 1: 
Cache L2_bank_002:
MSHR contents

Cache L2_bank_003:
MSHR contents

In Dram Latency Queue (total = 0): 
DRAM[1]: 16 bks, busW=4 BL=8 CL=12, tRRD=2 tCCD=6, tRCD=12 tRAS=28 tRP=12 tRC=40
n_cmd=3742394 n_nop=3684207 n_act=1461 n_pre=1445 n_req=17285 n_rd=35752 n_write=19529 bw_util=0.02954
n_activity=191622 dram_eff=0.577
bk0: 2240a 3721577i bk1: 2240a 3720626i bk2: 2240a 3721071i bk3: 2240a 3720083i bk4: 2240a 3721458i bk5: 2240a 3720385i bk6: 2240a 3720749i bk7: 2240a 3719771i bk8: 2240a 3718883i bk9: 2240a 3717587i bk10: 2196a 3720294i bk11: 2196a 3718815i bk12: 2240a 3721299i bk13: 2240a 3719935i bk14: 2240a 3720732i bk15: 2240a 3718753i 
dram_util_bins: 0 0 0 0 0 0 0 0 0 0
dram_eff_bins: 0 0 0 0 0 0 0 0 0 0
mrqq: max=64 avg=0.335568
Memory Partition 2: 
Cache L2_bank_004:
MSHR contents

Cache L2_bank_005:
MSHR contents

In Dram Latency Queue (total = 0): 
DRAM[2]: 16 bks, busW=4 BL=8 CL=12, tRRD=2 tCCD=6, tRCD=12 tRAS=28 tRP=12 tRC=40
n_cmd=3742394 n_nop=3684209 n_act=1419 n_pre=1403 n_req=17300 n_rd=35752 n_write=19611 bw_util=0.02959
n_activity=191333 dram_eff=0.5787
bk0: 2240a 3722293i bk1: 2240a 3720590i bk2: 2240a 3720910i bk3: 2240a 3720019i bk4: 2240a 3720759i bk5: 2240a 3720710i bk6: 2240a 3720561i bk7: 2240a 3720217i bk8: 2240a 3719207i bk9: 2240a 3718853i bk10: 2196a 3719705i bk11: 2196a 3718933i bk12: 2240a 3720584i bk13: 2240a 3719542i bk14: 2240a 3720975i bk15: 2240a 3719956i 
dram_util_bins: 0 0 0 0 0 0 0 0 0 0
dram_eff_bins: 0 0 0 0 0 0 0 0 0 0
mrqq: max=64 avg=0.332533
Memory Partition 3: 
Cache L2_bank_006:
MSHR contents

Cache L2_bank_007:
MSHR contents

In Dram Latency Queue (total = 0): 
DRAM[3]: 16 bks, busW=4 BL=8 CL=12, tRRD=2 tCCD=6, tRCD=12 tRAS=28 tRP=12 tRC=40
n_cmd=3742394 n_nop=3684425 n_act=1349 n_pre=1333 n_req=17278 n_rd=35752 n_write=19535 bw_util=0.02955
n_activity=191650 dram_eff=0.577
bk0: 2240a 3722272i bk1: 2240a 3720971i bk2: 2240a 3720971i bk3: 2240a 3720958i bk4: 2240a 3721620i bk5: 2240a 3720908i bk6: 2240a 3720577i bk7: 2240a 3719738i bk8: 2240a 3719166i bk9: 2240a 3717777i bk10: 2196a 3719974i bk11: 2196a 3719655i bk12: 2240a 3720419i bk13: 2240a 3719913i bk14: 2240a 3721566i bk15: 2240a 3720348i 
dram_util_bins: 0 0 0 0 0 0 0 0 0 0
dram_eff_bins: 0 0 0 0 0 0 0 0 0 0
mrqq: max=64 avg=0.326882
Memory Partition 4: 
Cache L2_bank_008:
MSHR contents

Cache L2_bank_009:
MSHR contents

In Dram Latency Queue (total = 0): 
DRAM[4]: 16 bks, busW=4 BL=8 CL=12, tRRD=2 tCCD=6, tRCD=12 tRAS=28 tRP=12 tRC=40
n_cmd=3742394 n_nop=3684191 n_act=1450 n_pre=1434 n_req=17280 n_rd=35760 n_write=19559 bw_util=0.02956
n_activity=191519 dram_eff=0.5777
bk0: 2240a 3721217i bk1: 2240a 3720584i bk2: 2240a 3721241i bk3: 2240a 3721001i bk4: 2240a 3721799i bk5: 2240a 3720503i bk6: 2240a 3720624i bk7: 2240a 3719157i bk8: 2240a 3719068i bk9: 2240a 3718506i bk10: 2196a 3719445i bk11: 2196a 3718364i bk12: 2240a 3721244i bk13: 2240a 3719971i bk14: 2244a 3720912i bk15: 2244a 3719269i 
dram_util_bins: 0 0 0 0 0 0 0 0 0 0
dram_eff_bins: 0 0 0 0 0 0 0 0 0 0
mrqq: max=64 avg=0.337699
Memory Partition 5: 
Cache L2_bank_010:
MSHR contents

Cache L2_bank_011:
MSHR contents

In Dram Latency Queue (total = 0): 
DRAM[5]: 16 bks, busW=4 BL=8 CL=12, tRRD=2 tCCD=6, tRCD=12 tRAS=28 tRP=12 tRC=40
n_cmd=3742394 n_nop=3683905 n_act=1598 n_pre=1582 n_req=17275 n_rd=35752 n_write=19557 bw_util=0.02956
n_activity=192614 dram_eff=0.5743
bk0: 2240a 3720800i bk1: 2240a 3720335i bk2: 2240a 3720904i bk3: 2240a 3720454i bk4: 2240a 3720699i bk5: 2240a 3719904i bk6: 2240a 3720259i bk7: 2240a 3719119i bk8: 2240a 3718961i bk9: 2240a 3717374i bk10: 2192a 3720195i bk11: 2192a 3719732i bk12: 2240a 3721368i bk13: 2240a 3719004i bk14: 2244a 3720318i bk15: 2244a 3719335i 
dram_util_bins: 0 0 0 0 0 0 0 0 0 0
dram_eff_bins: 0 0 0 0 0 0 0 0 0 0
mrqq: max=64 avg=0.333473
Memory Partition 6: 
Cache L2_bank_012:
MSHR contents

Cache L2_bank_013:
MSHR contents

In Dram Latency Queue (total = 0): 
DRAM[6]: 16 bks, busW=4 BL=8 CL=12, tRRD=2 tCCD=6, tRCD=12 tRAS=28 tRP=12 tRC=40
n_cmd=3742394 n_nop=3684199 n_act=1472 n_pre=1456 n_req=17282 n_rd=35752 n_write=19515 bw_util=0.02954
n_activity=191229 dram_eff=0.578
bk0: 2240a 3721322i bk1: 2240a 3720881i bk2: 2240a 3722162i bk3: 2240a 3720955i bk4: 2240a 3720794i bk5: 2240a 3719557i bk6: 2240a 3720550i bk7: 2240a 3719030i bk8: 2240a 3719399i bk9: 2240a 3718380i bk10: 2192a 3720325i bk11: 2192a 3719650i bk12: 2240a 3720465i bk13: 2240a 3719509i bk14: 2244a 3720860i bk15: 2244a 3719036i 
dram_util_bins: 0 0 0 0 0 0 0 0 0 0
dram_eff_bins: 0 0 0 0 0 0 0 0 0 0
mrqq: max=64 avg=0.334097
Memory Partition 7: 
Cache L2_bank_014:
MSHR contents

Cache L2_bank_015:
MSHR contents

In Dram Latency Queue (total = 0): 
DRAM[7]: 16 bks, busW=4 BL=8 CL=12, tRRD=2 tCCD=6, tRCD=12 tRAS=28 tRP=12 tRC=40
n_cmd=3742394 n_nop=3684359 n_act=1380 n_pre=1364 n_req=17294 n_rd=35752 n_write=19539 bw_util=0.02955
n_activity=191617 dram_eff=0.5771
bk0: 2240a 3722338i bk1: 2240a 3721228i bk2: 2240a 3721737i bk3: 2240a 3720335i bk4: 2240a 3721051i bk5: 2240a 3720005i bk6: 2240a 3720689i bk7: 2240a 3720405i bk8: 2240a 3719141i bk9: 2240a 3718139i bk10: 2192a 3719795i bk11: 2192a 3719675i bk12: 2240a 3721170i bk13: 2240a 3720114i bk14: 2244a 3720600i bk15: 2244a 3719378i 
dram_util_bins: 0 0 0 0 0 0 0 0 0 0
dram_eff_bins: 0 0 0 0 0 0 0 0 0 0
mrqq: max=64 avg=0.33224
Memory Partition 8: 
Cache L2_bank_016:
MSHR contents

Cache L2_bank_017:
MSHR contents

In Dram Latency Queue (total = 0): 
DRAM[8]: 16 bks, busW=4 BL=8 CL=12, tRRD=2 tCCD=6, tRCD=12 tRAS=28 tRP=12 tRC=40
n_cmd=3742394 n_nop=3684280 n_act=1397 n_pre=1381 n_req=17285 n_rd=35752 n_write=19584 bw_util=0.02957
n_activity=192090 dram_eff=0.5761
bk0: 2240a 3722725i bk1: 2240a 3720403i bk2: 2240a 3721601i bk3: 2240a 3720658i bk4: 2240a 3721528i bk5: 2240a 3720210i bk6: 2240a 3720533i bk7: 2240a 3720439i bk8: 2240a 3718600i bk9: 2240a 3717922i bk10: 2192a 3720298i bk11: 2192a 3719554i bk12: 2240a 3720543i bk13: 2240a 3720766i bk14: 2244a 3721181i bk15: 2244a 3719640i 
dram_util_bins: 0 0 0 0 0 0 0 0 0 0
dram_eff_bins: 0 0 0 0 0 0 0 0 0 0
mrqq: max=64 avg=0.32888
Memory Partition 9: 
Cache L2_bank_018:
MSHR contents

Cache L2_bank_019:
MSHR contents

In Dram Latency Queue (total = 0): 
DRAM[9]: 16 bks, busW=4 BL=8 CL=12, tRRD=2 tCCD=6, tRCD=12 tRAS=28 tRP=12 tRC=40
n_cmd=3742394 n_nop=3684183 n_act=1436 n_pre=1420 n_req=17304 n_rd=35752 n_write=19603 bw_util=0.02958
n_activity=192866 dram_eff=0.574
bk0: 2240a 3722518i bk1: 2240a 3721941i bk2: 2240a 3721769i bk3: 2240a 3721285i bk4: 2240a 3721174i bk5: 2240a 3720313i bk6: 2240a 3720210i bk7: 2240a 3720421i bk8: 2240a 3719732i bk9: 2240a 3718628i bk10: 2192a 3721356i bk11: 2192a 3719005i bk12: 2240a 3721192i bk13: 2240a 3720293i bk14: 2244a 3720613i bk15: 2244a 3719197i 
dram_util_bins: 0 0 0 0 0 0 0 0 0 0
dram_eff_bins: 0 0 0 0 0 0 0 0 0 0
mrqq: max=64 avg=0.33241
Memory Partition 10: 
Cache L2_bank_020:
MSHR contents

Cache L2_bank_021:
MSHR contents

In Dram Latency Queue (total = 0): 
DRAM[10]: 16 bks, busW=4 BL=8 CL=12, tRRD=2 tCCD=6, tRCD=12 tRAS=28 tRP=12 tRC=40
n_cmd=3742394 n_nop=3683981 n_act=1534 n_pre=1518 n_req=17301 n_rd=35748 n_write=19613 bw_util=0.02959
n_activity=192098 dram_eff=0.5764
bk0: 2240a 3721201i bk1: 2240a 3719934i bk2: 2240a 3721219i bk3: 2240a 3719801i bk4: 2240a 3720993i bk5: 2240a 3719400i bk6: 2240a 3720885i bk7: 2240a 3719274i bk8: 2240a 3719386i bk9: 2240a 3717737i bk10: 2192a 3719684i bk11: 2192a 3719069i bk12: 2240a 3721351i bk13: 2240a 3719270i bk14: 2244a 3719746i bk15: 2240a 3719065i 
dram_util_bins: 0 0 0 0 0 0 0 0 0 0
dram_eff_bins: 0 0 0 0 0 0 0 0 0 0
mrqq: max=64 avg=0.337809

========= L2 cache stats =========
L2_cache_bank[0]: Access = 20620, Miss = 4469, Miss_rate = 0.217, Pending_hits = 7310, Reservation_fails = 7
L2_cache_bank[1]: Access = 20905, Miss = 4468, Miss_rate = 0.214, Pending_hits = 7389, Reservation_fails = 9
L2_cache_bank[2]: Access = 20570, Miss = 4469, Miss_rate = 0.217, Pending_hits = 7267, Reservation_fails = 4
L2_cache_bank[3]: Access = 20910, Miss = 4469, Miss_rate = 0.214, Pending_hits = 7399, Reservation_fails = 5
L2_cache_bank[4]: Access = 20562, Miss = 4469, Miss_rate = 0.217, Pending_hits = 7180, Reservation_fails = 14
L2_cache_bank[5]: Access = 20901, Miss = 4469, Miss_rate = 0.214, Pending_hits = 7350, Reservation_fails = 6
L2_cache_bank[6]: Access = 20556, Miss = 4469, Miss_rate = 0.217, Pending_hits = 7312, Reservation_fails = 5
L2_cache_bank[7]: Access = 20897, Miss = 4469, Miss_rate = 0.214, Pending_hits = 7332, Reservation_fails = 8
L2_cache_bank[8]: Access = 20582, Miss = 4470, Miss_rate = 0.217, Pending_hits = 7287, Reservation_fails = 8
L2_cache_bank[9]: Access = 20926, Miss = 4470, Miss_rate = 0.214, Pending_hits = 7351, Reservation_fails = 2
L2_cache_bank[10]: Access = 20583, Miss = 4469, Miss_rate = 0.217, Pending_hits = 7302, Reservation_fails = 8
L2_cache_bank[11]: Access = 20925, Miss = 4469, Miss_rate = 0.214, Pending_hits = 7422, Reservation_fails = 9
L2_cache_bank[12]: Access = 20590, Miss = 4469, Miss_rate = 0.217, Pending_hits = 7331, Reservation_fails = 10
L2_cache_bank[13]: Access = 20929, Miss = 4469, Miss_rate = 0.214, Pending_hits = 7421, Reservation_fails = 10
L2_cache_bank[14]: Access = 20586, Miss = 4469, Miss_rate = 0.217, Pending_hits = 7205, Reservation_fails = 12
L2_cache_bank[15]: Access = 20925, Miss = 4469, Miss_rate = 0.214, Pending_hits = 7371, Reservation_fails = 8
L2_cache_bank[16]: Access = 20580, Miss = 4469, Miss_rate = 0.217, Pending_hits = 7259, Reservation_fails = 5
L2_cache_bank[17]: Access = 20920, Miss = 4469, Miss_rate = 0.214, Pending_hits = 7443, Reservation_fails = 13
L2_cache_bank[18]: Access = 20578, Miss = 4469, Miss_rate = 0.217, Pending_hits = 7274, Reservation_fails = 8
L2_cache_bank[19]: Access = 20921, Miss = 4469, Miss_rate = 0.214, Pending_hits = 7306, Reservation_fails = 5
L2_cache_bank[20]: Access = 20581, Miss = 4469, Miss_rate = 0.217, Pending_hits = 7292, Reservation_fails = 5
L2_cache_bank[21]: Access = 20897, Miss = 4468, Miss_rate = 0.214, Pending_hits = 7338, Reservation_fails = 7
L2_total_cache_accesses = 456444
L2_total_cache_misses = 98318
L2_total_cache_miss_rate = 0.2154
L2_total_cache_pending_hits = 161141
L2_total_cache_reservation_fails = 168
L2_total_cache_breakdown:
	L2_cache_stats_breakdown[GLOBAL_ACC_R][HIT] = 165226
	L2_cache_stats_breakdown[GLOBAL_ACC_R][HIT_RESERVED] = 115694
	L2_cache_stats_breakdown[GLOBAL_ACC_R][MISS] = 65536
	L2_cache_stats_breakdown[GLOBAL_ACC_R][RESERVATION_FAIL] = 2
	L2_cache_stats_breakdown[LOCAL_ACC_R][HIT] = 0
	L2_cache_stats_breakdown[LOCAL_ACC_R][HIT_RESERVED] = 0
	L2_cache_stats_breakdown[LOCAL_ACC_R][MISS] = 0
	L2_cache_stats_breakdown[LOCAL_ACC_R][RESERVATION_FAIL] = 0
	L2_cache_stats_breakdown[CONST_ACC_R][HIT] = 28
	L2_cache_stats_breakdown[CONST_ACC_R][HIT_RESERVED] = 27
	L2_cache_stats_breakdown[CONST_ACC_R][MISS] = 1
	L2_cache_stats_breakdown[CONST_ACC_R][RESERVATION_FAIL] = 0
	L2_cache_stats_breakdown[TEXTURE_ACC_R][HIT] = 0
	L2_cache_stats_breakdown[TEXTURE_ACC_R][HIT_RESERVED] = 0
	L2_cache_stats_breakdown[TEXTURE_ACC_R][MISS] = 0
	L2_cache_stats_breakdown[TEXTURE_ACC_R][RESERVATION_FAIL] = 0
	L2_cache_stats_breakdown[GLOBAL_ACC_W][HIT] = 31721
	L2_cache_stats_breakdown[GLOBAL_ACC_W][HIT_RESERVED] = 45079
	L2_cache_stats_breakdown[GLOBAL_ACC_W][MISS] = 32768
	L2_cache_stats_breakdown[GLOBAL_ACC_W][RESERVATION_FAIL] = 166
	L2_cache_stats_breakdown[LOCAL_ACC_W][HIT] = 0
	L2_cache_stats_breakdown[LOCAL_ACC_W][HIT_RESERVED] = 0
	L2_cache_stats_breakdown[LOCAL_ACC_W][MISS] = 0
	L2_cache_stats_breakdown[LOCAL_ACC_W][RESERVATION_FAIL] = 0
	L2_cache_stats_breakdown[L1_WRBK_ACC][HIT] = 0
	L2_cache_stats_breakdown[L1_WRBK_ACC][HIT_RESERVED] = 0
	L2_cache_stats_breakdown[L1_WRBK_ACC][MISS] = 0
	L2_cache_stats_breakdown[L1_WRBK_ACC][RESERVATION_FAIL] = 0
	L2_cache_stats_breakdown[L2_WRBK_ACC][HIT] = 0
	L2_cache_stats_breakdown[L2_WRBK_ACC][HIT_RESERVED] = 0
	L2_cache_stats_breakdown[L2_WRBK_ACC][MISS] = 0
	L2_cache_stats_breakdown[L2_WRBK_ACC][RESERVATION_FAIL] = 0
	L2_cache_stats_breakdown[INST_ACC_R][HIT] = 10
	L2_cache_stats_breakdown[INST_ACC_R][HIT_RESERVED] = 341
	L2_cache_stats_breakdown[INST_ACC_R][MISS] = 13
	L2_cache_stats_breakdown[INST_ACC_R][RESERVATION_FAIL] = 0
	L2_cache_stats_breakdown[L1_WR_ALLOC_R][HIT] = 0
	L2_cache_stats_breakdown[L1_WR_ALLOC_R][HIT_RESERVED] = 0
	L2_cache_stats_breakdown[L1_WR_ALLOC_R][MISS] = 0
	L2_cache_stats_breakdown[L1_WR_ALLOC_R][RESERVATION_FAIL] = 0
	L2_cache_stats_breakdown[L2_WR_ALLOC_R][HIT] = 0
	L2_cache_stats_breakdown[L2_WR_ALLOC_R][HIT_RESERVED] = 0
	L2_cache_stats_breakdown[L2_WR_ALLOC_R][MISS] = 0
	L2_cache_stats_breakdown[L2_WR_ALLOC_R][RESERVATION_FAIL] = 0
	L2_cache_stats_breakdown[GLOBAL_ACC_R][TOTAL_ACCESS] = 346456
	L2_cache_stats_breakdown[CONST_ACC_R][TOTAL_ACCESS] = 56
	L2_cache_stats_breakdown[GLOBAL_ACC_W][TOTAL_ACCESS] = 109568
	L2_cache_stats_breakdown[INST_ACC_R][TOTAL_ACCESS] = 364
L2_cache_data_port_util = 0.011
L2_cache_fill_port_util = 0.009

icnt_total_pkts_mem_to_simt=1270956
icnt_total_pkts_simt_to_mem=674556
LD_mem_lat_dist  0 0 0 0 0 0 0 0 0 0 0 0 0 0 0 0 0 0 0 0 0 0 0 0 0 0 0
ST_mem_lat_dist  0 0 0 0 0 0 0 0 0 0 0 0 0 0 0 0 0 0 0 0 0 0 0 0 0 0 0
----------------------------Interconnect-DETAILS--------------------------------
Class 0:
Packet latency average = 16.4637
	minimum = 6
	maximum = 752
Network latency average = 12.9994
	minimum = 6
	maximum = 747
Slowest packet = 534860
Flit latency average = 12.9022
	minimum = 6
	maximum = 743
Slowest flit = 1143041
Fragmentation average = 0.0015314
	minimum = 0
	maximum = 658
Injected packet rate average = 0.00452945
	minimum = 0.00394627 (at node 26)
	maximum = 0.00519214 (at node 41)
Accepted packet rate average = 0.00452945
	minimum = 0.00394627 (at node 26)
	maximum = 0.00519214 (at node 41)
Injected flit rate average = 0.009653
	minimum = 0.0058456 (at node 6)
	maximum = 0.0144484 (at node 37)
Accepted flit rate average= 0.009653
	minimum = 0.00756978 (at node 34)
	maximum = 0.011618 (at node 17)
Injected packet length average = 2.13116
Accepted packet length average = 2.13116
Total in-flight flits = 0 (0 measured)
====== Overall Traffic Statistics ======
====== Traffic class 0 ======
Packet latency average = 16.4637 (1 samples)
	minimum = 6 (1 samples)
	maximum = 752 (1 samples)
Network latency average = 12.9994 (1 samples)
	minimum = 6 (1 samples)
	maximum = 747 (1 samples)
Flit latency average = 12.9022 (1 samples)
	minimum = 6 (1 samples)
	maximum = 743 (1 samples)
Fragmentation average = 0.0015314 (1 samples)
	minimum = 0 (1 samples)
	maximum = 658 (1 samples)
Injected packet rate average = 0.00452945 (1 samples)
	minimum = 0.00394627 (1 samples)
	maximum = 0.00519214 (1 samples)
Accepted packet rate average = 0.00452945 (1 samples)
	minimum = 0.00394627 (1 samples)
	maximum = 0.00519214 (1 samples)
Injected flit rate average = 0.009653 (1 samples)
	minimum = 0.0058456 (1 samples)
	maximum = 0.0144484 (1 samples)
Accepted flit rate average = 0.009653 (1 samples)
	minimum = 0.00756978 (1 samples)
	maximum = 0.011618 (1 samples)
Injected packet size average = 2.13116 (1 samples)
Accepted packet size average = 2.13116 (1 samples)
Hops average = 1 (1 samples)
----------------------------END-of-Interconnect-DETAILS-------------------------


gpgpu_simulation_time = 0 days, 0 hrs, 45 min, 3 sec (2703 sec)
gpgpu_simulation_rate = 153705 (inst/sec)
gpgpu_simulation_rate = 827 (cycle/sec)

GPGPU-Sim PTX: cudaLaunch for 0x0x401ae2 (mode=performance simulation) on stream 0
GPGPU-Sim PTX: pushing kernel '_Z14calculate_tempiPfS_S_iiiiffffff' to stream 0, gridDim= (86,86,1) blockDim = (16,16,1) 
GPGPU-Sim uArch: Shader 13 bind to kernel 2 '_Z14calculate_tempiPfS_S_iiiiffffff'
GPGPU-Sim uArch: Shader 14 bind to kernel 2 '_Z14calculate_tempiPfS_S_iiiiffffff'
GPGPU-Sim uArch: Shader 15 bind to kernel 2 '_Z14calculate_tempiPfS_S_iiiiffffff'
GPGPU-Sim uArch: Shader 16 bind to kernel 2 '_Z14calculate_tempiPfS_S_iiiiffffff'
GPGPU-Sim uArch: Shader 17 bind to kernel 2 '_Z14calculate_tempiPfS_S_iiiiffffff'
GPGPU-Sim uArch: Shader 18 bind to kernel 2 '_Z14calculate_tempiPfS_S_iiiiffffff'
GPGPU-Sim uArch: Shader 19 bind to kernel 2 '_Z14calculate_tempiPfS_S_iiiiffffff'
GPGPU-Sim uArch: Shader 20 bind to kernel 2 '_Z14calculate_tempiPfS_S_iiiiffffff'
GPGPU-Sim uArch: Shader 21 bind to kernel 2 '_Z14calculate_tempiPfS_S_iiiiffffff'
GPGPU-Sim uArch: Shader 22 bind to kernel 2 '_Z14calculate_tempiPfS_S_iiiiffffff'
GPGPU-Sim uArch: Shader 23 bind to kernel 2 '_Z14calculate_tempiPfS_S_iiiiffffff'
GPGPU-Sim uArch: Shader 24 bind to kernel 2 '_Z14calculate_tempiPfS_S_iiiiffffff'
GPGPU-Sim uArch: Shader 25 bind to kernel 2 '_Z14calculate_tempiPfS_S_iiiiffffff'
GPGPU-Sim uArch: Shader 26 bind to kernel 2 '_Z14calculate_tempiPfS_S_iiiiffffff'
GPGPU-Sim uArch: Shader 27 bind to kernel 2 '_Z14calculate_tempiPfS_S_iiiiffffff'
GPGPU-Sim uArch: Shader 0 bind to kernel 2 '_Z14calculate_tempiPfS_S_iiiiffffff'
GPGPU-Sim uArch: Shader 1 bind to kernel 2 '_Z14calculate_tempiPfS_S_iiiiffffff'
GPGPU-Sim uArch: Shader 2 bind to kernel 2 '_Z14calculate_tempiPfS_S_iiiiffffff'
GPGPU-Sim uArch: Shader 3 bind to kernel 2 '_Z14calculate_tempiPfS_S_iiiiffffff'
GPGPU-Sim uArch: Shader 4 bind to kernel 2 '_Z14calculate_tempiPfS_S_iiiiffffff'
GPGPU-Sim uArch: Shader 5 bind to kernel 2 '_Z14calculate_tempiPfS_S_iiiiffffff'
GPGPU-Sim uArch: Shader 6 bind to kernel 2 '_Z14calculate_tempiPfS_S_iiiiffffff'
GPGPU-Sim uArch: Shader 7 bind to kernel 2 '_Z14calculate_tempiPfS_S_iiiiffffff'
GPGPU-Sim uArch: Shader 8 bind to kernel 2 '_Z14calculate_tempiPfS_S_iiiiffffff'
GPGPU-Sim uArch: Shader 9 bind to kernel 2 '_Z14calculate_tempiPfS_S_iiiiffffff'
GPGPU-Sim uArch: Shader 10 bind to kernel 2 '_Z14calculate_tempiPfS_S_iiiiffffff'
GPGPU-Sim uArch: Shader 11 bind to kernel 2 '_Z14calculate_tempiPfS_S_iiiiffffff'
GPGPU-Sim uArch: Shader 12 bind to kernel 2 '_Z14calculate_tempiPfS_S_iiiiffffff'
GPGPU-Sim uArch: Shader 13 bind to kernel 2 '_Z14calculate_tempiPfS_S_iiiiffffff'
[...]
F:  2137917----T:  2197812 	 St: c0b83000 Sz: 512000 	 Sm: 0 	 T: memcpy_h2d(40.442268)
F:  2459750----T:  4512951 	 	 	 Kl: 2 	 Sm: 0 	 T: kernel_launch(1386.361206)
F:  2460163----T:  2463249 	 St: c0400000 Sz: 12288 	 Sm: 0 	 T: memcpy_h2d(2.083727)
F:  2463249----T:  2470571 	 St: c0403000 Sz: 53248 	 Sm: 0 	 T: memcpy_h2d(4.943957)
F:  2470571----T:  2473657 	 St: c0410000 Sz: 12288 	 Sm: 0 	 T: memcpy_h2d(2.083727)
F:  2473657----T:  2480979 	 St: c0413000 Sz: 53248 	 Sm: 0 	 T: memcpy_h2d(4.943957)
F:  2480979----T:  2484065 	 St: c0420000 Sz: 12288 	 Sm: 0 	 T: memcpy_h2d(2.083727)
F:  2484065----T:  2498823 	 St: c0423000 Sz: 118784 	 Sm: 0 	 T: memcpy_h2d(9.964889)
F:  2506701----T:  2509306 	 St: c0440000 Sz: 4096 	 Sm: 0 	 T: memcpy_h2d(1.758947)
F:  2509306----T:  2540029 	 St: c0441000 Sz: 258048 	 Sm: 0 	 T: memcpy_h2d(20.744766)
F:  2554756----T:  2557842 	 St: c0480000 Sz: 12288 	 Sm: 0 	 T: memcpy_h2d(2.083727)
F:  2554756----T:  2796836 	 St: c0600000 Sz: 2097152 	 Sm: 0 	 T: write_back(163.457123)
F:  2557842----T:  2617737 	 St: c0483000 Sz: 512000 	 Sm: 0 	 T: memcpy_h2d(40.442268)
F:  2827614----T:  2830700 	 St: c0500000 Sz: 12288 	 Sm: 0 	 T: memcpy_h2d(2.083727)
F:  2830700----T:  2950848 	 St: c0503000 Sz: 1036288 	 Sm: 0 	 T: memcpy_h2d(81.126266)
F:  3016907----T:  3019993 	 St: c0600000 Sz: 12288 	 Sm: 0 	 T: memcpy_h2d(2.083727)
F:  3019993----T:  3027315 	 St: c0603000 Sz: 53248 	 Sm: 0 	 T: memcpy_h2d(4.943957)
F:  3020377----T:  3262457 	 St: c0200000 Sz: 2097152 	 Sm: 0 	 T: write_back(163.457123)
F:  3027315----T:  3029920 	 St: c0610000 Sz: 4096 	 Sm: 0 	 T: memcpy_h2d(1.758947)
F:  3029920----T:  3038160 	 St: c0611000 Sz: 61440 	 Sm: 0 	 T: memcpy_h2d(5.563808)
F:  3038160----T:  3040765 	 St: c0a00000 Sz: 4096 	 Sm: 0 	 T: memcpy_h2d(1.758947)
F:  3040765----T:  3161854 	 St: c0a01000 Sz: 1044480 	 Sm: 0 	 T: memcpy_h2d(81.761650)
F:  3163824----T:  3166429 	 St: c0200000 Sz: 4096 	 Sm: 0 	 T: memcpy_h2d(1.758947)
F:  3166429----T:  3174669 	 St: c0201000 Sz: 61440 	 Sm: 0 	 T: memcpy_h2d(5.563808)
F:  3263866----T:  3266952 	 St: c0620000 Sz: 12288 	 Sm: 0 	 T: memcpy_h2d(2.083727)
F:  3266952----T:  3281710 	 St: c0623000 Sz: 118784 	 Sm: 0 	 T: memcpy_h2d(9.964889)
F:  3281710----T:  3284315 	 St: c0210000 Sz: 4096 	 Sm: 0 	 T: memcpy_h2d(1.758947)
F:  3284315----T:  3292555 	 St: c0211000 Sz: 61440 	 Sm: 0 	 T: memcpy_h2d(5.563808)
F:  3292555----T:  3295160 	 St: c0220000 Sz: 4096 	 Sm: 0 	 T: memcpy_h2d(1.758947)
F:  3295160----T:  3310855 	 St: c0221000 Sz: 126976 	 Sm: 0 	 T: memcpy_h2d(10.597569)
F:  3312442----T:  3315047 	 St: c0640000 Sz: 4096 	 Sm: 0 	 T: memcpy_h2d(1.758947)
F:  3315047----T:  3345770 	 St: c0641000 Sz: 258048 	 Sm: 0 	 T: memcpy_h2d(20.744766)
F:  3352630----T:  3355716 	 St: c0240000 Sz: 12288 	 Sm: 0 	 T: memcpy_h2d(2.083727)
F:  3355716----T:  3385499 	 St: c0243000 Sz: 249856 	 Sm: 0 	 T: memcpy_h2d(20.110062)
F:  3393966----T:  3397052 	 St: c0680000 Sz: 12288 	 Sm: 0 	 T: memcpy_h2d(2.083727)
F:  3397052----T:  3456947 	 St: c0683000 Sz: 512000 	 Sm: 0 	 T: memcpy_h2d(40.442268)
F:  3462661----T:  3467302 	 St: c0280000 Sz: 28672 	 Sm: 0 	 T: memcpy_h2d(3.133693)
F:  3462661----T:  3704741 	 St: c0a00000 Sz: 2097152 	 Sm: 0 	 T: write_back(163.457123)
F:  3467302----T:  3525314 	 St: c0287000 Sz: 495616 	 Sm: 0 	 T: memcpy_h2d(39.170830)
F:  3705325----T:  3708411 	 St: c0a90000 Sz: 12288 	 Sm: 0 	 T: memcpy_h2d(2.083727)
F:  3708411----T:  3715733 	 St: c0a93000 Sz: 53248 	 Sm: 0 	 T: memcpy_h2d(4.943957)
F:  3715733----T:  3718338 	 St: c0aa0000 Sz: 4096 	 Sm: 0 	 T: memcpy_h2d(1.758947)
F:  3718338----T:  3726578 	 St: c0aa1000 Sz: 61440 	 Sm: 0 	 T: memcpy_h2d(5.563808)
F:  3726578----T:  3735280 	 St: c0a80000 Sz: 65536 	 Sm: 0 	 T: memcpy_h2d(5.875760)
F:  3735280----T:  3738366 	 St: c0ab0000 Sz: 12288 	 Sm: 0 	 T: memcpy_h2d(2.083727)
F:  3738366----T:  3745688 	 St: c0ab3000 Sz: 53248 	 Sm: 0 	 T: memcpy_h2d(4.943957)
F:  3746828----T:  3749914 	 St: c0ac0000 Sz: 12288 	 Sm: 0 	 T: memcpy_h2d(2.083727)
F:  3749914----T:  3779697 	 St: c0ac3000 Sz: 249856 	 Sm: 0 	 T: memcpy_h2d(20.110062)
F:  3794056----T:  3796661 	 St: c0700000 Sz: 4096 	 Sm: 0 	 T: memcpy_h2d(1.758947)
F:  3796661----T:  3917750 	 St: c0701000 Sz: 1044480 	 Sm: 0 	 T: memcpy_h2d(81.761650)
F:  3918126----T:  3920731 	 St: c0b00000 Sz: 4096 	 Sm: 0 	 T: memcpy_h2d(1.758947)
F:  3918853----T:  4160933 	 St: c0400000 Sz: 2097152 	 Sm: 0 	 T: write_back(163.457123)
F:  3920731----T:  3928971 	 St: c0b01000 Sz: 61440 	 Sm: 0 	 T: memcpy_h2d(5.563808)
F:  3928971----T:  3932057 	 St: c0b10000 Sz: 12288 	 Sm: 0 	 T: memcpy_h2d(2.083727)
F:  3932057----T:  3939379 	 St: c0b13000 Sz: 53248 	 Sm: 0 	 T: memcpy_h2d(4.943957)
F:  3939379----T:  3941984 	 St: c0300000 Sz: 4096 	 Sm: 0 	 T: memcpy_h2d(1.758947)
F:  3941984----T:  4063073 	 St: c0301000 Sz: 1044480 	 Sm: 0 	 T: memcpy_h2d(81.761650)
F:  4162345----T:  4165431 	 St: c0b20000 Sz: 12288 	 Sm: 0 	 T: memcpy_h2d(2.083727)
F:  4165431----T:  4180189 	 St: c0b23000 Sz: 118784 	 Sm: 0 	 T: memcpy_h2d(9.964889)
F:  4187473----T:  4190559 	 St: c0b40000 Sz: 12288 	 Sm: 0 	 T: memcpy_h2d(2.083727)
F:  4190559----T:  4220342 	 St: c0b43000 Sz: 249856 	 Sm: 0 	 T: memcpy_h2d(20.110062)
F:  4235078----T:  4296385 	 St: c0a00000 Sz: 524288 	 Sm: 0 	 T: memcpy_h2d(41.395679)
F:  4235078----T:  4477158 	 St: c0000000 Sz: 2097152 	 Sm: 0 	 T: write_back(163.457123)
F:  4296385----T:  4299471 	 St: c0b80000 Sz: 12288 	 Sm: 0 	 T: memcpy_h2d(2.083727)
F:  4299471----T:  4359366 	 St: c0b83000 Sz: 512000 	 Sm: 0 	 T: memcpy_h2d(40.442268)
F:  4735101----T:  6950991 	 	 	 Kl: 3 	 Sm: 0 	 T: kernel_launch(1496.212036)
F:  4735525----T:  4738611 	 St: c0000000 Sz: 12288 	 Sm: 0 	 T: memcpy_h2d(2.083727)
F:  4738611----T:  4745933 	 St: c0003000 Sz: 53248 	 Sm: 0 	 T: memcpy_h2d(4.943957)
F:  4745933----T:  4749019 	 St: c0010000 Sz: 12288 	 Sm: 0 	 T: memcpy_h2d(2.083727)
F:  4749019----T:  4756341 	 St: c0013000 Sz: 53248 	 Sm: 0 	 T: memcpy_h2d(4.943957)
F:  4756341----T:  4759427 	 St: c0020000 Sz: 12288 	 Sm: 0 	 T: memcpy_h2d(2.083727)
F:  4759427----T:  4774185 	 St: c0023000 Sz: 118784 	 Sm: 0 	 T: memcpy_h2d(9.964889)
F:  4774185----T:  4776790 	 St: c0400000 Sz: 4096 	 Sm: 0 	 T: memcpy_h2d(1.758947)
F:  4776790----T:  4785030 	 St: c0401000 Sz: 61440 	 Sm: 0 	 T: memcpy_h2d(5.563808)
F:  4785030----T:  4787635 	 St: c0410000 Sz: 4096 	 Sm: 0 	 T: memcpy_h2d(1.758947)
F:  4787635----T:  4795875 	 St: c0411000 Sz: 61440 	 Sm: 0 	 T: memcpy_h2d(5.563808)
F:  4795875----T:  4798480 	 St: c0420000 Sz: 4096 	 Sm: 0 	 T: memcpy_h2d(1.758947)
F:  4798480----T:  4814175 	 St: c0421000 Sz: 126976 	 Sm: 0 	 T: memcpy_h2d(10.597569)
F:  4821800----T:  4824886 	 St: c0040000 Sz: 12288 	 Sm: 0 	 T: memcpy_h2d(2.083727)
F:  4824886----T:  4854669 	 St: c0043000 Sz: 249856 	 Sm: 0 	 T: memcpy_h2d(20.110062)
F:  4860457----T:  4863062 	 St: c0440000 Sz: 4096 	 Sm: 0 	 T: memcpy_h2d(1.758947)
F:  4863062----T:  4893785 	 St: c0441000 Sz: 258048 	 Sm: 0 	 T: memcpy_h2d(20.744766)
F:  4902249----T:  4905335 	 St: c0080000 Sz: 12288 	 Sm: 0 	 T: memcpy_h2d(2.083727)
F:  4905335----T:  4965230 	 St: c0083000 Sz: 512000 	 Sm: 0 	 T: memcpy_h2d(40.442268)
F:  4971197----T:  4974283 	 St: c0480000 Sz: 12288 	 Sm: 0 	 T: memcpy_h2d(2.083727)
F:  4971197----T:  5213277 	 St: c0600000 Sz: 2097152 	 Sm: 0 	 T: write_back(163.457123)
F:  4974283----T:  5034178 	 St: c0483000 Sz: 512000 	 Sm: 0 	 T: memcpy_h2d(40.442268)
F:  5237747----T:  5240833 	 St: c0100000 Sz: 12288 	 Sm: 0 	 T: memcpy_h2d(2.083727)
F:  5240833----T:  5360981 	 St: c0103000 Sz: 1036288 	 Sm: 0 	 T: memcpy_h2d(81.126266)
F:  5366853----T:  5369458 	 St: c0500000 Sz: 4096 	 Sm: 0 	 T: memcpy_h2d(1.758947)
F:  5366853----T:  5608933 	 St: c0200000 Sz: 2097152 	 Sm: 0 	 T: write_back(163.457123)
F:  5369458----T:  5490547 	 St: c0501000 Sz: 1044480 	 Sm: 0 	 T: memcpy_h2d(81.761650)
F:  5668015----T:  5671101 	 St: c0200000 Sz: 12288 	 Sm: 0 	 T: memcpy_h2d(2.083727)
F:  5671101----T:  5678423 	 St: c0203000 Sz: 53248 	 Sm: 0 	 T: memcpy_h2d(4.943957)
F:  5679690----T:  5682295 	 St: c0210000 Sz: 4096 	 Sm: 0 	 T: memcpy_h2d(1.758947)
F:  5682295----T:  5690535 	 St: c0211000 Sz: 61440 	 Sm: 0 	 T: memcpy_h2d(5.563808)
F:  5690535----T:  5693140 	 St: c0600000 Sz: 4096 	 Sm: 0 	 T: memcpy_h2d(1.758947)
F:  5693140----T:  5701380 	 St: c0601000 Sz: 61440 	 Sm: 0 	 T: memcpy_h2d(5.563808)
F:  5701380----T:  5706895 	 St: c0610000 Sz: 36864 	 Sm: 0 	 T: memcpy_h2d(3.723835)
F:  5706895----T:  5711536 	 St: c0619000 Sz: 28672 	 Sm: 0 	 T: memcpy_h2d(3.133693)
F:  5712489----T:  5715575 	 St: c0220000 Sz: 12288 	 Sm: 0 	 T: memcpy_h2d(2.083727)
F:  5715575----T:  5730333 	 St: c0223000 Sz: 118784 	 Sm: 0 	 T: memcpy_h2d(9.964889)
F:  5730956----T:  5733561 	 St: c0240000 Sz: 4096 	 Sm: 0 	 T: memcpy_h2d(1.758947)
F:  5733561----T:  5764284 	 St: c0241000 Sz: 258048 	 Sm: 0 	 T: memcpy_h2d(20.744766)
F:  5764284----T:  5766889 	 St: c0620000 Sz: 4096 	 Sm: 0 	 T: memcpy_h2d(1.758947)
F:  5766889----T:  5782584 	 St: c0621000 Sz: 126976 	 Sm: 0 	 T: memcpy_h2d(10.597569)
F:  5789907----T:  5792512 	 St: c0640000 Sz: 4096 	 Sm: 0 	 T: memcpy_h2d(1.758947)
F:  5792512----T:  5823235 	 St: c0641000 Sz: 258048 	 Sm: 0 	 T: memcpy_h2d(20.744766)
F:  5831913----T:  5834999 	 St: c0280000 Sz: 12288 	 Sm: 0 	 T: memcpy_h2d(2.083727)
F:  5834999----T:  5894894 	 St: c0283000 Sz: 512000 	 Sm: 0 	 T: memcpy_h2d(40.442268)
F:  5900806----T:  5903892 	 St: c0680000 Sz: 12288 	 Sm: 0 	 T: memcpy_h2d(2.083727)
F:  5900806----T:  6142886 	 St: c0a00000 Sz: 2097152 	 Sm: 0 	 T: write_back(163.457123)
F:  5903892----T:  5963787 	 St: c0683000 Sz: 512000 	 Sm: 0 	 T: memcpy_h2d(40.442268)
F:  6143471----T:  6146557 	 St: c0a90000 Sz: 12288 	 Sm: 0 	 T: memcpy_h2d(2.083727)
F:  6146557----T:  6153879 	 St: c0a93000 Sz: 53248 	 Sm: 0 	 T: memcpy_h2d(4.943957)
F:  6153879----T:  6156484 	 St: c0aa0000 Sz: 4096 	 Sm: 0 	 T: memcpy_h2d(1.758947)
F:  6156484----T:  6164724 	 St: c0aa1000 Sz: 61440 	 Sm: 0 	 T: memcpy_h2d(5.563808)
F:  6164724----T:  6173426 	 St: c0a80000 Sz: 65536 	 Sm: 0 	 T: memcpy_h2d(5.875760)
F:  6173426----T:  6176512 	 St: c0ab0000 Sz: 12288 	 Sm: 0 	 T: memcpy_h2d(2.083727)
F:  6176512----T:  6183834 	 St: c0ab3000 Sz: 53248 	 Sm: 0 	 T: memcpy_h2d(4.943957)
F:  6184961----T:  6188047 	 St: c0ac0000 Sz: 12288 	 Sm: 0 	 T: memcpy_h2d(2.083727)
F:  6188047----T:  6217830 	 St: c0ac3000 Sz: 249856 	 Sm: 0 	 T: memcpy_h2d(20.110062)
F:  6232236----T:  6234841 	 St: c0300000 Sz: 4096 	 Sm: 0 	 T: memcpy_h2d(1.758947)
F:  6234841----T:  6355930 	 St: c0301000 Sz: 1044480 	 Sm: 0 	 T: memcpy_h2d(81.761650)
F:  6356305----T:  6358910 	 St: c0b00000 Sz: 4096 	 Sm: 0 	 T: memcpy_h2d(1.758947)
F:  6357189----T:  6599269 	 St: c0400000 Sz: 2097152 	 Sm: 0 	 T: write_back(163.457123)
F:  6358910----T:  6367150 	 St: c0b01000 Sz: 61440 	 Sm: 0 	 T: memcpy_h2d(5.563808)
F:  6367150----T:  6370236 	 St: c0b10000 Sz: 12288 	 Sm: 0 	 T: memcpy_h2d(2.083727)
F:  6370236----T:  6377558 	 St: c0b13000 Sz: 53248 	 Sm: 0 	 T: memcpy_h2d(4.943957)
F:  6377558----T:  6380163 	 St: c0700000 Sz: 4096 	 Sm: 0 	 T: memcpy_h2d(1.758947)
F:  6380163----T:  6501252 	 St: c0701000 Sz: 1044480 	 Sm: 0 	 T: memcpy_h2d(81.761650)
F:  6600674----T:  6603760 	 St: c0b20000 Sz: 12288 	 Sm: 0 	 T: memcpy_h2d(2.083727)
F:  6603760----T:  6618518 	 St: c0b23000 Sz: 118784 	 Sm: 0 	 T: memcpy_h2d(9.964889)
F:  6625692----T:  6628778 	 St: c0b40000 Sz: 12288 	 Sm: 0 	 T: memcpy_h2d(2.083727)
F:  6628778----T:  6658561 	 St: c0b43000 Sz: 249856 	 Sm: 0 	 T: memcpy_h2d(20.110062)
F:  6673292----T:  6734599 	 St: c0a00000 Sz: 524288 	 Sm: 0 	 T: memcpy_h2d(41.395679)
F:  6673292----T:  6915372 	 St: c0000000 Sz: 2097152 	 Sm: 0 	 T: write_back(163.457123)
F:  6734599----T:  6737685 	 St: c0b80000 Sz: 12288 	 Sm: 0 	 T: memcpy_h2d(2.083727)
F:  6737685----T:  6797580 	 St: c0b83000 Sz: 512000 	 Sm: 0 	 T: memcpy_h2d(40.442268)
F:  7173141----T:  9388637 	 	 	 Kl: 4 	 Sm: 0 	 T: kernel_launch(1495.945923)
F:  7173565----T:  7176651 	 St: c0400000 Sz: 12288 	 Sm: 0 	 T: memcpy_h2d(2.083727)
F:  7176651----T:  7183973 	 St: c0403000 Sz: 53248 	 Sm: 0 	 T: memcpy_h2d(4.943957)
F:  7183973----T:  7187059 	 St: c0410000 Sz: 12288 	 Sm: 0 	 T: memcpy_h2d(2.083727)
F:  7187059----T:  7194381 	 St: c0413000 Sz: 53248 	 Sm: 0 	 T: memcpy_h2d(4.943957)
F:  7194381----T:  7197467 	 St: c0420000 Sz: 12288 	 Sm: 0 	 T: memcpy_h2d(2.083727)
F:  7197467----T:  7212225 	 St: c0423000 Sz: 118784 	 Sm: 0 	 T: memcpy_h2d(9.964889)
F:  7212225----T:  7214830 	 St: c0000000 Sz: 4096 	 Sm: 0 	 T: memcpy_h2d(1.758947)
F:  7214830----T:  7223070 	 St: c0001000 Sz: 61440 	 Sm: 0 	 T: memcpy_h2d(5.563808)
F:  7223070----T:  7225675 	 St: c0010000 Sz: 4096 	 Sm: 0 	 T: memcpy_h2d(1.758947)
F:  7225675----T:  7233915 	 St: c0011000 Sz: 61440 	 Sm: 0 	 T: memcpy_h2d(5.563808)
F:  7233915----T:  7236520 	 St: c0020000 Sz: 4096 	 Sm: 0 	 T: memcpy_h2d(1.758947)
F:  7236520----T:  7252215 	 St: c0021000 Sz: 126976 	 Sm: 0 	 T: memcpy_h2d(10.597569)
F:  7259811----T:  7262897 	 St: c0440000 Sz: 12288 	 Sm: 0 	 T: memcpy_h2d(2.083727)
F:  7262897----T:  7292680 	 St: c0443000 Sz: 249856 	 Sm: 0 	 T: memcpy_h2d(20.110062)
F:  7298525----T:  7301130 	 St: c0040000 Sz: 4096 	 Sm: 0 	 T: memcpy_h2d(1.758947)
F:  7301130----T:  7331853 	 St: c0041000 Sz: 258048 	 Sm: 0 	 T: memcpy_h2d(20.744766)
F:  7340325----T:  7343411 	 St: c0480000 Sz: 12288 	 Sm: 0 	 T: memcpy_h2d(2.083727)
F:  7343411----T:  7403306 	 St: c0483000 Sz: 512000 	 Sm: 0 	 T: memcpy_h2d(40.442268)
F:  7409216----T:  7412302 	 St: c0080000 Sz: 12288 	 Sm: 0 	 T: memcpy_h2d(2.083727)
F:  7409216----T:  7651296 	 St: c0600000 Sz: 2097152 	 Sm: 0 	 T: write_back(163.457123)
F:  7412302----T:  7472197 	 St: c0083000 Sz: 512000 	 Sm: 0 	 T: memcpy_h2d(40.442268)
F:  7675588----T:  7680229 	 St: c0500000 Sz: 28672 	 Sm: 0 	 T: memcpy_h2d(3.133693)
F:  7680229----T:  7798494 	 St: c0507000 Sz: 1019904 	 Sm: 0 	 T: memcpy_h2d(79.854828)
F:  7804346----T:  7806951 	 St: c0100000 Sz: 4096 	 Sm: 0 	 T: memcpy_h2d(1.758947)
F:  7804346----T:  8046426 	 St: c0200000 Sz: 2097152 	 Sm: 0 	 T: write_back(163.457123)
F:  7806951----T:  7928040 	 St: c0101000 Sz: 1044480 	 Sm: 0 	 T: memcpy_h2d(81.761650)
F:  8105927----T:  8109013 	 St: c0600000 Sz: 12288 	 Sm: 0 	 T: memcpy_h2d(2.083727)
F:  8109013----T:  8116335 	 St: c0603000 Sz: 53248 	 Sm: 0 	 T: memcpy_h2d(4.943957)
F:  8116860----T:  8119465 	 St: c0610000 Sz: 4096 	 Sm: 0 	 T: memcpy_h2d(1.758947)
F:  8119465----T:  8127705 	 St: c0611000 Sz: 61440 	 Sm: 0 	 T: memcpy_h2d(5.563808)
F:  8127705----T:  8130310 	 St: c0200000 Sz: 4096 	 Sm: 0 	 T: memcpy_h2d(1.758947)
F:  8130310----T:  8138550 	 St: c0201000 Sz: 61440 	 Sm: 0 	 T: memcpy_h2d(5.563808)
F:  8138550----T:  8144065 	 St: c0210000 Sz: 36864 	 Sm: 0 	 T: memcpy_h2d(3.723835)
F:  8144065----T:  8148706 	 St: c0219000 Sz: 28672 	 Sm: 0 	 T: memcpy_h2d(3.133693)
F:  8149649----T:  8152735 	 St: c0620000 Sz: 12288 	 Sm: 0 	 T: memcpy_h2d(2.083727)
F:  8152735----T:  8167493 	 St: c0623000 Sz: 118784 	 Sm: 0 	 T: memcpy_h2d(9.964889)
F:  8168109----T:  8170714 	 St: c0640000 Sz: 4096 	 Sm: 0 	 T: memcpy_h2d(1.758947)
F:  8170714----T:  8201437 	 St: c0641000 Sz: 258048 	 Sm: 0 	 T: memcpy_h2d(20.744766)
F:  8201437----T:  8204042 	 St: c0220000 Sz: 4096 	 Sm: 0 	 T: memcpy_h2d(1.758947)
F:  8204042----T:  8219737 	 St: c0221000 Sz: 126976 	 Sm: 0 	 T: memcpy_h2d(10.597569)
F:  8227015----T:  8229620 	 St: c0240000 Sz: 4096 	 Sm: 0 	 T: memcpy_h2d(1.758947)
F:  8229620----T:  8260343 	 St: c0241000 Sz: 258048 	 Sm: 0 	 T: memcpy_h2d(20.744766)
F:  8269108----T:  8272194 	 St: c0680000 Sz: 12288 	 Sm: 0 	 T: memcpy_h2d(2.083727)
F:  8272194----T:  8332089 	 St: c0683000 Sz: 512000 	 Sm: 0 	 T: memcpy_h2d(40.442268)
F:  8338114----T:  8340719 	 St: c0280000 Sz: 4096 	 Sm: 0 	 T: memcpy_h2d(1.758947)
F:  8338114----T:  8580194 	 St: c0a00000 Sz: 2097152 	 Sm: 0 	 T: write_back(163.457123)
F:  8340719----T:  8401555 	 St: c0281000 Sz: 520192 	 Sm: 0 	 T: memcpy_h2d(41.077652)
F:  8580782----T:  8583868 	 St: c0a90000 Sz: 12288 	 Sm: 0 	 T: memcpy_h2d(2.083727)
F:  8583868----T:  8591190 	 St: c0a93000 Sz: 53248 	 Sm: 0 	 T: memcpy_h2d(4.943957)
F:  8591190----T:  8593795 	 St: c0aa0000 Sz: 4096 	 Sm: 0 	 T: memcpy_h2d(1.758947)
F:  8593795----T:  8602035 	 St: c0aa1000 Sz: 61440 	 Sm: 0 	 T: memcpy_h2d(5.563808)
F:  8602035----T:  8610737 	 St: c0a80000 Sz: 65536 	 Sm: 0 	 T: memcpy_h2d(5.875760)
F:  8610737----T:  8613823 	 St: c0ab0000 Sz: 12288 	 Sm: 0 	 T: memcpy_h2d(2.083727)
F:  8613823----T:  8621145 	 St: c0ab3000 Sz: 53248 	 Sm: 0 	 T: memcpy_h2d(4.943957)
F:  8622300----T:  8625386 	 St: c0ac0000 Sz: 12288 	 Sm: 0 	 T: memcpy_h2d(2.083727)
F:  8625386----T:  8655169 	 St: c0ac3000 Sz: 249856 	 Sm: 0 	 T: memcpy_h2d(20.110062)
F:  8669512----T:  8672117 	 St: c0700000 Sz: 4096 	 Sm: 0 	 T: memcpy_h2d(1.758947)
F:  8672117----T:  8793206 	 St: c0701000 Sz: 1044480 	 Sm: 0 	 T: memcpy_h2d(81.761650)
F:  8793587----T:  8796192 	 St: c0b00000 Sz: 4096 	 Sm: 0 	 T: memcpy_h2d(1.758947)
F:  8794463----T:  9036543 	 St: c0400000 Sz: 2097152 	 Sm: 0 	 T: write_back(163.457123)
F:  8796192----T:  8804432 	 St: c0b01000 Sz: 61440 	 Sm: 0 	 T: memcpy_h2d(5.563808)
F:  8804432----T:  8807518 	 St: c0b10000 Sz: 12288 	 Sm: 0 	 T: memcpy_h2d(2.083727)
F:  8807518----T:  8814840 	 St: c0b13000 Sz: 53248 	 Sm: 0 	 T: memcpy_h2d(4.943957)
F:  8814840----T:  8817445 	 St: c0300000 Sz: 4096 	 Sm: 0 	 T: memcpy_h2d(1.758947)
F:  8817445----T:  8938534 	 St: c0301000 Sz: 1044480 	 Sm: 0 	 T: memcpy_h2d(81.761650)
F:  9037952----T:  9041038 	 St: c0b20000 Sz: 12288 	 Sm: 0 	 T: memcpy_h2d(2.083727)
F:  9041038----T:  9055796 	 St: c0b23000 Sz: 118784 	 Sm: 0 	 T: memcpy_h2d(9.964889)
F:  9063204----T:  9066290 	 St: c0b40000 Sz: 12288 	 Sm: 0 	 T: memcpy_h2d(2.083727)
F:  9066290----T:  9096073 	 St: c0b43000 Sz: 249856 	 Sm: 0 	 T: memcpy_h2d(20.110062)
F:  9110657----T:  9171964 	 St: c0a00000 Sz: 524288 	 Sm: 0 	 T: memcpy_h2d(41.395679)
F:  9110657----T:  9352737 	 St: c0000000 Sz: 2097152 	 Sm: 0 	 T: write_back(163.457123)
F:  9171964----T:  9175050 	 St: c0b80000 Sz: 12288 	 Sm: 0 	 T: memcpy_h2d(2.083727)
F:  9175050----T:  9234945 	 St: c0b83000 Sz: 512000 	 Sm: 0 	 T: memcpy_h2d(40.442268)
F:  9388637----T:  9391242 	 St: 0 Sz: 4096 	 Sm: 0 	 T: device_sync(1.758947)
F:  9388637----T:  9396877 	 St: 0 Sz: 61440 	 Sm: 0 	 T: device_sync(5.563808)
F:  9399482----T:  9402087 	 St: 0 Sz: 4096 	 Sm: 0 	 T: device_sync(1.758947)
F:  9399482----T:  9407722 	 St: 0 Sz: 61440 	 Sm: 0 	 T: device_sync(5.563808)
F:  9410327----T:  9412932 	 St: 0 Sz: 4096 	 Sm: 0 	 T: device_sync(1.758947)
F:  9410327----T:  9426022 	 St: 0 Sz: 126976 	 Sm: 0 	 T: device_sync(10.597569)
F:  9428627----T:  9431232 	 St: 0 Sz: 4096 	 Sm: 0 	 T: device_sync(1.758947)
F:  9428627----T:  9459350 	 St: 0 Sz: 258048 	 Sm: 0 	 T: device_sync(20.744766)
F:  9461955----T:  9464560 	 St: 0 Sz: 4096 	 Sm: 0 	 T: device_sync(1.758947)
F:  9461955----T:  9522791 	 St: 0 Sz: 520192 	 Sm: 0 	 T: device_sync(41.077652)
F:  9525396----T:  9528001 	 St: 0 Sz: 4096 	 Sm: 0 	 T: device_sync(1.758947)
F:  9525396----T:  9646485 	 St: 0 Sz: 1044480 	 Sm: 0 	 T: device_sync(81.761650)
Tot_prefetch_time: 0(cycle), 0.000000(us)
Tot_kernel_exec_time: 8500037(cycle), 5739.390137(us)
Tot_kernel_exec_time_and_fault_time: 17497112(cycle), 11814.390625(us)
Tot_memcpy_h2d_time: 5472858(cycle), 3695.380127(us)
Tot_memcpy_d2h_time: 0(cycle), 0.000000(us)
Tot_memcpy_time: 5472858(cycle), 3695.380127(us)
Tot_devicesync_time: 260453(cycle), 175.862930(us)
Tot_writeback_time: 4115360(cycle), 2778.770996(us)
Tot_dma_time: 9600(cycle), 6.482107(us)
Tot_memcpy_d2h_sync_wb_time: 4375813(cycle), 2954.634033(us)
GPGPU-Sim: *** exit detected ***
