

        *** GPGPU-Sim Simulator Version 3.2.2  [build gpgpu-sim_git-commit-81f06f4dfacce9460dffe8b3842afa7b201b4af9_modified_0] ***


GPGPU-Sim PTX: simulation mode 0 (can change with PTX_SIM_MODE_FUNC environment variable:
               1=functional simulation only, 0=detailed performance simulator)
GPGPU-Sim: Configuration options:

-network_mode                           1 # Interconnection network mode
-inter_config_file   config_fermi_islip.icnt # Interconnection network config file
-gpgpu_ptx_use_cuobjdump                    1 # Use cuobjdump to extract ptx and sass from binaries
-gpgpu_experimental_lib_support                    0 # Try to extract code from cuda libraries [Broken because of unknown cudaGetExportTable]
-gpgpu_ptx_convert_to_ptxplus                    0 # Convert SASS (native ISA) to ptxplus and run ptxplus
-gpgpu_ptx_force_max_capability                   20 # Force maximum compute capability
-gpgpu_ptx_inst_debug_to_file                    0 # Dump executed instructions' debug information to file
-gpgpu_ptx_inst_debug_file       inst_debug.txt # Executed instructions' debug output file
-gpgpu_ptx_inst_debug_thread_uid                    1 # Thread UID for executed instructions' debug output
-gpgpu_simd_model                       1 # 1 = post-dominator
-gpgpu_shader_core_pipeline              2048:32 # shader core pipeline config, i.e., {<nthread>:<warpsize>}
-gpgpu_tex_cache:l1  16:128:24,L:R:m:N:L,F:128:4,128:2 # per-shader L1 texture cache  (READ-ONLY) config  {<nsets>:<bsize>:<assoc>,<rep>:<wr>:<alloc>:<wr_alloc>,<mshr>:<N>:<merge>,<mq>:<rf>}
-gpgpu_const_cache:l1 128:64:2,L:R:f:N:L,A:2:64,4 # per-shader L1 constant memory cache  (READ-ONLY) config  {<nsets>:<bsize>:<assoc>,<rep>:<wr>:<alloc>:<wr_alloc>,<mshr>:<N>:<merge>,<mq>} 
-gpgpu_cache:il1     8:128:4,L:R:f:N:L,A:2:48,4 # shader L1 instruction cache config  {<nsets>:<bsize>:<assoc>,<rep>:<wr>:<alloc>:<wr_alloc>,<mshr>:<N>:<merge>,<mq>} 
-gpgpu_cache:dl1     64:128:6,L:L:m:N:H,A:128:8,8 # per-shader L1 data cache config  {<nsets>:<bsize>:<assoc>,<rep>:<wr>:<alloc>:<wr_alloc>,<mshr>:<N>:<merge>,<mq> | none}
-gpgpu_cache:dl1PrefL1                 none # per-shader L1 data cache config  {<nsets>:<bsize>:<assoc>,<rep>:<wr>:<alloc>:<wr_alloc>,<mshr>:<N>:<merge>,<mq> | none}
-gpgpu_cache:dl1PrefShared                 none # per-shader L1 data cache config  {<nsets>:<bsize>:<assoc>,<rep>:<wr>:<alloc>:<wr_alloc>,<mshr>:<N>:<merge>,<mq> | none}
-gmem_skip_L1D                          1 # global memory access skip L1D cache (implements -Xptxas -dlcm=cg, default=no skip)
-gpgpu_perfect_mem                      0 # enable perfect memory mode (no cache miss)
-n_regfile_gating_group                    4 # group of lanes that should be read/written together)
-gpgpu_clock_gated_reg_file                    0 # enable clock gated reg file for power calculations
-gpgpu_clock_gated_lanes                    0 # enable clock gated lanes for power calculations
-gpgpu_shader_registers                65536 # Number of registers per shader core. Limits number of concurrent CTAs. (default 8192)
-gpgpu_shader_cta                      32 # Maximum number of concurrent CTAs in shader (default 8)
-gpgpu_num_cta_barriers                   16 # Maximum number of named barriers per CTA (default 16)
-gpgpu_n_clusters                      28 # number of processing clusters
-gpgpu_n_cores_per_cluster                    1 # number of simd cores per cluster
-gpgpu_n_cluster_ejection_buffer_size                    8 # number of packets in ejection buffer
-gpgpu_n_ldst_response_buffer_size                    2 # number of response packets in ld/st unit ejection buffer
-gpgpu_shmem_size                   16384 # Size of shared memory per shader core (default 16kB)
-gpgpu_shmem_size                   98304 # Size of shared memory per shader core (default 16kB)
-gpgpu_shmem_size_PrefL1                16384 # Size of shared memory per shader core (default 16kB)
-gpgpu_shmem_size_PrefShared                16384 # Size of shared memory per shader core (default 16kB)
-gpgpu_shmem_num_banks                   32 # Number of banks in the shared memory in each shader core (default 16)
-gpgpu_shmem_limited_broadcast                    0 # Limit shared memory to do one broadcast per cycle (default on)
-gpgpu_shmem_warp_parts                    1 # Number of portions a warp is divided into for shared memory bank conflict check 
-gpgpu_warpdistro_shader                   -1 # Specify which shader core to collect the warp size distribution from
-gpgpu_warp_issue_shader                    0 # Specify which shader core to collect the warp issue distribution from
-gpgpu_local_mem_map                    1 # Mapping from local memory space address to simulated GPU physical address space (default = enabled)
-gpgpu_num_reg_banks                   32 # Number of register banks (default = 8)
-gpgpu_reg_bank_use_warp_id                    0 # Use warp ID in mapping registers to banks (default = off)
-gpgpu_operand_collector_num_units_sp                   20 # number of collector units (default = 4)
-gpgpu_operand_collector_num_units_sfu                    4 # number of collector units (default = 4)
-gpgpu_operand_collector_num_units_mem                    8 # number of collector units (default = 2)
-gpgpu_operand_collector_num_units_gen                    0 # number of collector units (default = 0)
-gpgpu_operand_collector_num_in_ports_sp                    4 # number of collector unit in ports (default = 1)
-gpgpu_operand_collector_num_in_ports_sfu                    1 # number of collector unit in ports (default = 1)
-gpgpu_operand_collector_num_in_ports_mem                    1 # number of collector unit in ports (default = 1)
-gpgpu_operand_collector_num_in_ports_gen                    0 # number of collector unit in ports (default = 0)
-gpgpu_operand_collector_num_out_ports_sp                    4 # number of collector unit in ports (default = 1)
-gpgpu_operand_collector_num_out_ports_sfu                    1 # number of collector unit in ports (default = 1)
-gpgpu_operand_collector_num_out_ports_mem                    1 # number of collector unit in ports (default = 1)
-gpgpu_operand_collector_num_out_ports_gen                    0 # number of collector unit in ports (default = 0)
-gpgpu_coalesce_arch                   13 # Coalescing arch (default = 13, anything else is off for now)
-gpgpu_num_sched_per_core                    2 # Number of warp schedulers per core
-gpgpu_max_insn_issue_per_warp                    2 # Max number of instructions that can be issued per warp in one cycle by scheduler
-gpgpu_simt_core_sim_order                    1 # Select the simulation order of cores in a cluster (0=Fix, 1=Round-Robin)
-gpgpu_pipeline_widths        4,1,1,4,1,1,6 # Pipeline widths ID_OC_SP,ID_OC_SFU,ID_OC_MEM,OC_EX_SP,OC_EX_SFU,OC_EX_MEM,EX_WB
-gpgpu_num_sp_units                     4 # Number of SP units (default=1)
-gpgpu_num_sfu_units                    1 # Number of SF units (default=1)
-gpgpu_num_mem_units                    1 # Number if ldst units (default=1) WARNING: not hooked up to anything
-gpgpu_scheduler                      gto # Scheduler configuration: < lrr | gto | two_level_active > If two_level_active:<num_active_warps>:<inner_prioritization>:<outer_prioritization>For complete list of prioritization values see shader.h enum scheduler_prioritization_typeDefault: gto
-gpgpu_concurrent_kernel_sm                    0 # Support concurrent kernels on a SM (default = disabled)
-tlb_size                            4096 # Number of tlb entries per SM.
-gpgpu_dram_scheduler                    1 # 0 = fifo, 1 = FR-FCFS (defaul)
-gpgpu_dram_partition_queues              8:8:8:8 # i2$:$2d:d2$:$2i
-l2_ideal                               0 # Use a ideal L2 cache that always hit
-gpgpu_cache:dl2     64:128:16,L:B:m:W:L,A:1024:1024,4:0,32 # unified banked L2 data cache config  {<nsets>:<bsize>:<assoc>,<rep>:<wr>:<alloc>:<wr_alloc>,<mshr>:<N>:<merge>,<mq>}
-gpgpu_cache:dl2_texture_only                    0 # L2 cache used for texture only
-gpgpu_n_mem                           11 # number of memory modules (e.g. memory controllers) in gpu
-gpgpu_n_sub_partition_per_mchannel                    2 # number of memory subpartition in each memory module
-gpgpu_n_mem_per_ctrlr                    1 # number of memory chips per memory controller
-gpgpu_memlatency_stat                   14 # track and display latency statistics 0x2 enables MC, 0x4 enables queue logs
-gpgpu_frfcfs_dram_sched_queue_size                   64 # 0 = unlimited (default); # entries per chip
-gpgpu_dram_return_queue_size                  116 # 0 = unlimited (default); # entries per chip
-gpgpu_dram_buswidth                    4 # default = 4 bytes (8 bytes per cycle at DDR)
-gpgpu_dram_burst_length                    8 # Burst length of each DRAM request (default = 4 data bus cycle)
-dram_data_command_freq_ratio                    4 # Frequency ratio between DRAM data bus and command bus (default = 2 times, i.e. DDR)
-gpgpu_dram_timing_opt nbk=16:CCD=2:RRD=6:RCD=12:RAS=28:RP=12:RC=40: CL=12:WL=4:CDLR=5:WR=12:nbkgrp=1:CCDL=0:RTPL=0 # DRAM timing parameters = {nbk:tCCD:tRRD:tRCD:tRAS:tRP:tRC:CL:WL:tCDLR:tWR:nbkgrp:tCCDL:tRTPL}
-rop_latency                          120 # ROP queue latency (default 85)
-dram_latency                         100 # DRAM latency (default 30)
-gpgpu_mem_addr_mapping dramid@8;00000000.00000000.00000000.00000000.0000RRRR.RRRRRRRR.RBBBCCCC.BCCSSSSS # mapping memory address to dram model {dramid@<start bit>;<memory address map>}
-gpgpu_mem_addr_test                    0 # run sweep test to check address mapping for aliased address
-gpgpu_mem_address_mask                    1 # 0 = old addressing mask, 1 = new addressing mask, 2 = new add. mask + flipped bank sel and chip sel bits
-gpuwattch_xml_file  gpuwattch_geforcegtx1080ti.xml # GPUWattch XML file
-power_simulation_enabled                    1 # Turn on power simulator (1=On, 0=Off)
-power_per_cycle_dump                    0 # Dump detailed power output each cycle
-power_trace_enabled                    0 # produce a file for the power trace (1=On, 0=Off)
-power_trace_zlevel                     6 # Compression level of the power trace output log (0=no comp, 9=highest)
-steady_power_levels_enabled                    0 # produce a file for the steady power levels (1=On, 0=Off)
-steady_state_definition                  8:4 # allowed deviation:number of samples
-gpgpu_max_cycle                        0 # terminates gpu simulation early (0 = no limit)
-gpgpu_max_insn                         0 # terminates gpu simulation early (0 = no limit)
-gpgpu_max_cta                          0 # terminates gpu simulation early (0 = no limit)
-gpgpu_runtime_stat                   500 # display runtime statistics such as dram utilization {<freq>:<flag>}
-liveness_message_freq                    1 # Minimum number of seconds between simulation liveness messages (0 = always print)
-gpgpu_flush_l1_cache                    0 # Flush L1 cache at the end of each kernel call
-gpgpu_flush_l2_cache                    0 # Flush L2 cache at the end of each kernel call
-gpgpu_deadlock_detect                    0 # Stop the simulation at deadlock (1=on (default), 0=off)
-gpgpu_ptx_instruction_classification                    0 # if enabled will classify ptx instruction types per kernel (Max 255 kernels now)
-gpgpu_ptx_sim_mode                     0 # Select between Performance (default) or Functional simulation (1)
-gpgpu_clock_domains 1481.0:2962.0:1481.0:2750.0 # Clock Domain Frequencies in MhZ {<Core Clock>:<ICNT Clock>:<L2 Clock>:<DRAM Clock>}
-gpgpu_max_concurrent_kernel                    8 # maximum kernels that can run concurrently on GPU
-gpgpu_cflog_interval                    0 # Interval between each snapshot in control flow logger
-visualizer_enabled                     0 # Turn on visualizer output (1=On, 0=Off)
-visualizer_outputfile                 NULL # Specifies the output log file for visualizer
-visualizer_zlevel                      6 # Compression level of the visualizer output log (0=no comp, 9=highest)
-trace_enabled                          0 # Turn on traces
-trace_components                    none # comma seperated list of traces to enable. Complete list found in trace_streams.tup. Default none
-trace_sampling_core                    0 # The core which is printed using CORE_DPRINTF. Default 0
-trace_sampling_memory_partition                   -1 # The memory partition which is printed using MEMPART_DPRINTF. Default -1 (i.e. all)
-gddr_size                            1GB # Size of GDDR in MB/GB.(GLOBAL_HEAP_START, GLOBAL_HEAP_START + gddr_size) would be used for unmanged memory, (GLOBAL_HEAP_START + gddr_size, GLOBAL_HEAP_START + gddr_size*2) would be used for managed memory. 
-page_table_walk_latency                  100 # Average page table walk latency (in core cycle).
-eviction_policy                        0 # Select page eviction policy
-invalidate_clean                       0 # Should directly invalidate clean pages
-reserve_accessed_page_percent                    0 # Percentage of accessed pages reserved from eviction in hope that they will be accessed in next iteration.
-percentage_of_free_page_buffer                    0 # Percentage of free page buffer to trigger the page eviction.
-page_size                            4KB # GDDR page size, only 4KB/2MB avaliable.
-pcie_bandwidth                  16.0GB/s # PCI-e bandwidth per direction, in GB/s.
-enable_dma                             2 # Enable direct access to CPU memory
-multiply_dma_penalty                    2 # Oversubscription Multiplicative Penalty Factor for Adaptive DMA
-migrate_threshold                     32 # Access counter threshold for migrating the page from cpu to gpu
-sim_prof_enable                        1 # Enable gpgpu-sim profiler
-hardware_prefetch                      1 # Select gpgpu-sim hardware prefetcher
-hwprefetch_oversub                     1 # Select gpgpu-sim hardware prefetcher under over-subscription
-page_fault_latency                 66645 # Average fault latency (in core cycle).
-enable_accurate_simulation                    0 # Enable page fault functional simulation.
-enable_ptx_file_line_stats                    1 # Turn on PTX source line statistic profiling. (1 = On)
-ptx_line_stats_filename gpgpu_inst_stats.txt # Output file for PTX source line statistics.
-gpgpu_kernel_launch_latency               222150 # Kernel launch latency in cycles. Default: 0
-gpgpu_cdp_enabled                      0 # Turn on CDP
-save_embedded_ptx                      0 # saves ptx files embedded in binary as <n>.ptx
-keep                                   0 # keep intermediate files created by GPGPU-Sim when interfacing with external programs
-gpgpu_ptx_save_converted_ptxplus                    0 # Saved converted ptxplus to a file
-ptx_opcode_latency_int         4,13,4,5,145 # Opcode latencies for integers <ADD,MAX,MUL,MAD,DIV>Default 1,1,19,25,145
-ptx_opcode_latency_fp          4,13,4,5,39 # Opcode latencies for single precision floating points <ADD,MAX,MUL,MAD,DIV>Default 1,1,1,1,30
-ptx_opcode_latency_dp         8,19,8,8,330 # Opcode latencies for double precision floating points <ADD,MAX,MUL,MAD,DIV>Default 8,8,8,8,335
-ptx_opcode_initiation_int            1,2,2,2,8 # Opcode initiation intervals for integers <ADD,MAX,MUL,MAD,DIV>Default 1,1,4,4,32
-ptx_opcode_initiation_fp            1,2,1,1,4 # Opcode initiation intervals for single precision floating points <ADD,MAX,MUL,MAD,DIV>Default 1,1,1,1,5
-ptx_opcode_initiation_dp          1,2,1,1,130 # Opcode initiation intervals for double precision floating points <ADD,MAX,MUL,MAD,DIV>Default 8,8,8,8,130
-cdp_latency         7200,8000,100,12000,1600 # CDP API latency <cudaStreamCreateWithFlags, cudaGetParameterBufferV2_init_perWarp, cudaGetParameterBufferV2_perKernel, cudaLaunchDeviceV2_init_perWarp, cudaLaunchDevicV2_perKernel>Default 7200,8000,100,12000,1600
DRAM Timing Options:
nbk                                    16 # number of banks
CCD                                     2 # column to column delay
RRD                                     6 # minimal delay between activation of rows in different banks
RCD                                    12 # row to column delay
RAS                                    28 # time needed to activate row
RP                                     12 # time needed to precharge (deactivate) row
RC                                     40 # row cycle time
CDLR                                    5 # switching from write to read (changes tWTR)
WR                                     12 # last data-in to row precharge
CL                                     12 # CAS latency
WL                                      4 # Write latency
nbkgrp                                  1 # number of bank groups
CCDL                                    0 # column to column delay between accesses to different bank groups
RTPL                                    0 # read to precharge delay between accesses to different bank groups
Total number of memory sub partition = 22
addr_dec_mask[CHIP]  = 0000000000000000 	high:64 low:0
addr_dec_mask[BK]    = 0000000000007080 	high:15 low:7
addr_dec_mask[ROW]   = 000000000fff8000 	high:28 low:15
addr_dec_mask[COL]   = 0000000000000f7f 	high:12 low:0
addr_dec_mask[BURST] = 000000000000001f 	high:5 low:0
sub_partition_id_mask = 0000000000000080
GPGPU-Sim uArch: clock freqs: 1481000000.000000:2962000000.000000:1481000000.000000:2750000000.000000
GPGPU-Sim uArch: clock periods: 0.00000000067521944632:0.00000000033760972316:0.00000000067521944632:0.00000000036363636364
*** Initializing Memory Statistics ***
GPGPU-Sim uArch: interconnect node map (shaderID+MemID to icntID)
GPGPU-Sim uArch: Memory nodes ID start from index: 28
GPGPU-Sim uArch:    0   1   2   3   4   5   6
GPGPU-Sim uArch:    7   8   9  10  11  12  13
GPGPU-Sim uArch:   14  15  16  17  18  19  20
GPGPU-Sim uArch:   21  22  23  24  25  26  27
GPGPU-Sim uArch:   28  29  30  31  32  33  34
GPGPU-Sim uArch:   35  36  37  38  39  40  41
GPGPU-Sim uArch:   42  43  44  45  46  47  48
GPGPU-Sim uArch:   49
GPGPU-Sim uArch: interconnect node reverse map (icntID to shaderID+MemID)
GPGPU-Sim uArch: Memory nodes start from ID: 28
GPGPU-Sim uArch:    0   1   2   3   4   5   6
GPGPU-Sim uArch:    7   8   9  10  11  12  13
GPGPU-Sim uArch:   14  15  16  17  18  19  20
GPGPU-Sim uArch:   21  22  23  24  25  26  27
GPGPU-Sim uArch:   28  29  30  31  32  33  34
GPGPU-Sim uArch:   35  36  37  38  39  40  41
GPGPU-Sim uArch:   42  43  44  45  46  47  48
GPGPU-Sim uArch:   49
f2bb7d2b51ca0cb3858841b3824d1fe9  /root/gpgpu-sim_UVMSmart/benchmarks/Managed/backprop/backprop
GPGPU-Sim uArch: performance model initialization complete.
GPGPU-Sim PTX: __cudaRegisterFatBinary, fat_cubin_handle = 1, filename=default
self exe links to: /root/gpgpu-sim_UVMSmart/benchmarks/Managed/backprop/backprop
Running md5sum using "md5sum /root/gpgpu-sim_UVMSmart/benchmarks/Managed/backprop/backprop "
Parsing file _cuobjdump_complete_output_UWvodb
######### cuobjdump parser ########
## Adding new section ELF
Adding arch: sm_20
Adding identifier: default
## Adding new section ELF
Adding arch: sm_20
Adding identifier: default
## Adding new section PTX
Adding ptx filename: _cuobjdump_1.ptx
Adding arch: sm_20
Adding identifier: default
Done parsing!!!
GPGPU-Sim PTX: __cudaRegisterFunction _Z24bpnn_adjust_weights_cudaPfiS_iS_S_ : hostFun 0x0x402d51, fat_cubin_handle = 1
GPGPU-Sim PTX: allocating shared region for "_Z22bpnn_layerforward_CUDAPfS_S_S_ii$__cuda_local_var_17900_34_non_const_input_node" from 0x0 to 0x40 (shared memory space)
GPGPU-Sim PTX: allocating shared region for "_Z22bpnn_layerforward_CUDAPfS_S_S_ii$__cuda_local_var_17901_34_non_const_weight_matrix" from 0x80 to 0x480 (shared memory space)
GPGPU-Sim PTX: instruction assembly for function '_Z22bpnn_layerforward_CUDAPfS_S_S_ii'...   done.
GPGPU-Sim PTX: finding reconvergence points for '_Z22bpnn_layerforward_CUDAPfS_S_S_ii'...
GPGPU-Sim PTX: Finding dominators for '_Z22bpnn_layerforward_CUDAPfS_S_S_ii'...
GPGPU-Sim PTX: Finding immediate dominators for '_Z22bpnn_layerforward_CUDAPfS_S_S_ii'...
GPGPU-Sim PTX: Finding postdominators for '_Z22bpnn_layerforward_CUDAPfS_S_S_ii'...
GPGPU-Sim PTX: Finding immediate postdominators for '_Z22bpnn_layerforward_CUDAPfS_S_S_ii'...
GPGPU-Sim PTX: pre-decoding instructions for '_Z22bpnn_layerforward_CUDAPfS_S_S_ii'...
GPGPU-Sim PTX: reconvergence points for _Z22bpnn_layerforward_CUDAPfS_S_S_ii...
GPGPU-Sim PTX:  1 (potential) branch divergence @  PC=0x068 (_1.ptx:47) @%p2 bra BB0_2;
GPGPU-Sim PTX:    immediate post dominator      @  PC=0x0a0 (_1.ptx:57) cvta.to.global.u64 %rd3, %rd8;
GPGPU-Sim PTX:  2 (potential) branch divergence @  PC=0x168 (_1.ptx:82) @%p3 bra BB0_7;
GPGPU-Sim PTX:    immediate post dominator      @  PC=0x250 (_1.ptx:119) setp.eq.s32%p1, %r3, 0;
GPGPU-Sim PTX:  3 (potential) branch divergence @  PC=0x1c8 (_1.ptx:97) @%p4 bra BB0_6;
GPGPU-Sim PTX:    immediate post dominator      @  PC=0x228 (_1.ptx:112) bar.sync 0;
GPGPU-Sim PTX:  4 (potential) branch divergence @  PC=0x248 (_1.ptx:116) @%p5 bra BB0_4;
GPGPU-Sim PTX:    immediate post dominator      @  PC=0x250 (_1.ptx:119) setp.eq.s32%p1, %r3, 0;
GPGPU-Sim PTX:  5 (potential) branch divergence @  PC=0x270 (_1.ptx:123) @!%p1 bra BB0_9;
GPGPU-Sim PTX:    immediate post dominator      @  PC=0x2c8 (_1.ptx:138) ret;
GPGPU-Sim PTX:  6 (potential) branch divergence @  PC=0x278 (_1.ptx:124) bra.uni BB0_8;
GPGPU-Sim PTX:    immediate post dominator      @  PC=0x280 (_1.ptx:127) cvt.u32.u64%r20, %rd1;
GPGPU-Sim PTX: ... end of reconvergence points for _Z22bpnn_layerforward_CUDAPfS_S_S_ii
GPGPU-Sim PTX: ... done pre-decoding instructions for '_Z22bpnn_layerforward_CUDAPfS_S_S_ii'.
GPGPU-Sim PTX: instruction assembly for function '_Z24bpnn_adjust_weights_cudaPfiS_iS_S_'...   done.
GPGPU-Sim PTX: finding reconvergence points for '_Z24bpnn_adjust_weights_cudaPfiS_iS_S_'...
GPGPU-Sim PTX: Finding dominators for '_Z24bpnn_adjust_weights_cudaPfiS_iS_S_'...
GPGPU-Sim PTX: Finding immediate dominators for '_Z24bpnn_adjust_weights_cudaPfiS_iS_S_'...
GPGPU-Sim PTX: Finding postdominators for '_Z24bpnn_adjust_weights_cudaPfiS_iS_S_'...
GPGPU-Sim PTX: Finding immediate postdominators for '_Z24bpnn_adjust_weights_cudaPfiS_iS_S_'...
GPGPU-Sim PTX: pre-decoding instructions for '_Z24bpnn_adjust_weights_cudaPfiS_iS_S_'...
GPGPU-Sim PTX: reconvergence points for _Z24bpnn_adjust_weights_cudaPfiS_iS_S_...
GPGPU-Sim PTX:  1 (potential) branch divergence @  PC=0x470 (_1.ptx:210) @%p1 bra BB1_2;
GPGPU-Sim PTX:    immediate post dominator      @  PC=0x530 (_1.ptx:237) ret;
GPGPU-Sim PTX: ... end of reconvergence points for _Z24bpnn_adjust_weights_cudaPfiS_iS_S_
GPGPU-Sim PTX: ... done pre-decoding instructions for '_Z24bpnn_adjust_weights_cudaPfiS_iS_S_'.
GPGPU-Sim PTX: finished parsing EMBEDDED .ptx file _1.ptx
Adding _cuobjdump_1.ptx with cubin handle 1
GPGPU-Sim PTX: extracting embedded .ptx to temporary file "_ptx_Is9G6C"
Running: cat _ptx_Is9G6C | sed 's/.version 1.5/.version 1.4/' | sed 's/, texmode_independent//' | sed 's/\(\.extern \.const\[1\] .b8 \w\+\)\[\]/\1\[1\]/' | sed 's/const\[.\]/const\[0\]/g' > _ptx2_AwP0Z4
GPGPU-Sim PTX: generating ptxinfo using "$CUDA_INSTALL_PATH/bin/ptxas --gpu-name=sm_20 -v _ptx2_AwP0Z4 --output-file  /dev/null 2> _ptx_Is9G6Cinfo"
GPGPU-Sim PTX: Kernel '_Z24bpnn_adjust_weights_cudaPfiS_iS_S_' : regs=22, lmem=0, smem=0, cmem=80
GPGPU-Sim PTX: Kernel '_Z22bpnn_layerforward_CUDAPfS_S_S_ii' : regs=11, lmem=0, smem=1088, cmem=72
GPGPU-Sim PTX: removing ptxinfo using "rm -f _ptx_Is9G6C _ptx2_AwP0Z4 _ptx_Is9G6Cinfo"
GPGPU-Sim PTX: loading globals with explicit initializers... 
GPGPU-Sim PTX: finished loading globals (0 bytes total).
GPGPU-Sim PTX: loading constants with explicit initializers...  done.
GPGPU-Sim PTX: __cudaRegisterFunction _Z22bpnn_layerforward_CUDAPfS_S_S_ii : hostFun 0x0x402c00, fat_cubin_handle = 1
Random number generator seed: 7
Input layer size : 131056
Starting training kernel
Performing GPU computation

GPGPU-Sim PTX: cudaLaunch for 0x0x402c00 (mode=performance simulation) on stream 0
GPGPU-Sim PTX: pushing kernel '_Z22bpnn_layerforward_CUDAPfS_S_S_ii' to stream 0, gridDim= (1,8191,1) blockDim = (16,16,1) 
GPGPU-Sim uArch: Shader 1 bind to kernel 1 '_Z22bpnn_layerforward_CUDAPfS_S_S_ii'
GPGPU-Sim uArch: CTA/core = 8, limited by: threads
GPGPU-Sim uArch: Shader 2 bind to kernel 1 '_Z22bpnn_layerforward_CUDAPfS_S_S_ii'
GPGPU-Sim uArch: Shader 3 bind to kernel 1 '_Z22bpnn_layerforward_CUDAPfS_S_S_ii'
GPGPU-Sim uArch: Shader 4 bind to kernel 1 '_Z22bpnn_layerforward_CUDAPfS_S_S_ii'
GPGPU-Sim uArch: Shader 5 bind to kernel 1 '_Z22bpnn_layerforward_CUDAPfS_S_S_ii'
GPGPU-Sim uArch: Shader 6 bind to kernel 1 '_Z22bpnn_layerforward_CUDAPfS_S_S_ii'
GPGPU-Sim uArch: Shader 7 bind to kernel 1 '_Z22bpnn_layerforward_CUDAPfS_S_S_ii'
GPGPU-Sim uArch: Shader 8 bind to kernel 1 '_Z22bpnn_layerforward_CUDAPfS_S_S_ii'
GPGPU-Sim uArch: Shader 9 bind to kernel 1 '_Z22bpnn_layerforward_CUDAPfS_S_S_ii'
GPGPU-Sim uArch: Shader 10 bind to kernel 1 '_Z22bpnn_layerforward_CUDAPfS_S_S_ii'
GPGPU-Sim uArch: Shader 11 bind to kernel 1 '_Z22bpnn_layerforward_CUDAPfS_S_S_ii'
GPGPU-Sim uArch: Shader 12 bind to kernel 1 '_Z22bpnn_layerforward_CUDAPfS_S_S_ii'
GPGPU-Sim uArch: Shader 13 bind to kernel 1 '_Z22bpnn_layerforward_CUDAPfS_S_S_ii'
GPGPU-Sim uArch: Shader 14 bind to kernel 1 '_Z22bpnn_layerforward_CUDAPfS_S_S_ii'
GPGPU-Sim uArch: Shader 15 bind to kernel 1 '_Z22bpnn_layerforward_CUDAPfS_S_S_ii'
GPGPU-Sim uArch: Shader 16 bind to kernel 1 '_Z22bpnn_layerforward_CUDAPfS_S_S_ii'
GPGPU-Sim uArch: Shader 17 bind to kernel 1 '_Z22bpnn_layerforward_CUDAPfS_S_S_ii'
GPGPU-Sim uArch: Shader 18 bind to kernel 1 '_Z22bpnn_layerforward_CUDAPfS_S_S_ii'
GPGPU-Sim uArch: Shader 19 bind to kernel 1 '_Z22bpnn_layerforward_CUDAPfS_S_S_ii'
GPGPU-Sim uArch: Shader 20 bind to kernel 1 '_Z22bpnn_layerforward_CUDAPfS_S_S_ii'
GPGPU-Sim uArch: Shader 21 bind to kernel 1 '_Z22bpnn_layerforward_CUDAPfS_S_S_ii'
GPGPU-Sim uArch: Shader 22 bind to kernel 1 '_Z22bpnn_layerforward_CUDAPfS_S_S_ii'
GPGPU-Sim uArch: Shader 23 bind to kernel 1 '_Z22bpnn_layerforward_CUDAPfS_S_S_ii'
GPGPU-Sim uArch: Shader 24 bind to kernel 1 '_Z22bpnn_layerforward_CUDAPfS_S_S_ii'
GPGPU-Sim uArch: Shader 25 bind to kernel 1 '_Z22bpnn_layerforward_CUDAPfS_S_S_ii'
GPGPU-Sim uArch: Shader 26 bind to kernel 1 '_Z22bpnn_layerforward_CUDAPfS_S_S_ii'
GPGPU-Sim uArch: Shader 27 bind to kernel 1 '_Z22bpnn_layerforward_CUDAPfS_S_S_ii'
GPGPU-Sim uArch: Shader 0 bind to kernel 1 '_Z22bpnn_layerforward_CUDAPfS_S_S_ii'
GPGPU-Sim uArch: Shader 5 bind to kernel 1 '_Z22bpnn_layerforward_CUDAPfS_S_S_ii'
GPGPU-Sim uArch: Shader 6 bind to kernel 1 '_Z22bpnn_layerforward_CUDAPfS_S_S_ii'
GPGPU-Sim uArch: Shader 7 bind to kernel 1 '_Z22bpnn_layerforward_CUDAPfS_S_S_ii'
GPGPU-Sim uArch: Shader 8 bind to kernel 1 '_Z22bpnn_layerforward_CUDAPfS_S_S_ii'
GPGPU-Sim uArch: Shader 9 bind to kernel 1 '_Z22bpnn_layerforward_CUDAPfS_S_S_ii'
GPGPU-Sim uArch: Shader 10 bind to kernel 1 '_Z22bpnn_layerforward_CUDAPfS_S_S_ii'
GPGPU-Sim uArch: Shader 11 bind to kernel 1 '_Z22bpnn_layerforward_CUDAPfS_S_S_ii'
GPGPU-Sim uArch: Shader 12 bind to kernel 1 '_Z22bpnn_layerforward_CUDAPfS_S_S_ii'
GPGPU-Sim uArch: Shader 13 bind to kernel 1 '_Z22bpnn_layerforward_CUDAPfS_S_S_ii'
GPGPU-Sim uArch: Shader 14 bind to kernel 1 '_Z22bpnn_layerforward_CUDAPfS_S_S_ii'
GPGPU-Sim uArch: Shader 15 bind to kernel 1 '_Z22bpnn_layerforward_CUDAPfS_S_S_ii'
GPGPU-Sim uArch: Shader 16 bind to kernel 1 '_Z22bpnn_layerforward_CUDAPfS_S_S_ii'
GPGPU-Sim uArch: Shader 17 bind to kernel 1 '_Z22bpnn_layerforward_CUDAPfS_S_S_ii'
GPGPU-Sim uArch: Shader 18 bind to kernel 1 '_Z22bpnn_layerforward_CUDAPfS_S_S_ii'
GPGPU-Sim uArch: Shader 19 bind to kernel 1 '_Z22bpnn_layerforward_CUDAPfS_S_S_ii'
GPGPU-Sim uArch: Shader 20 bind to kernel 1 '_Z22bpnn_layerforward_CUDAPfS_S_S_ii'
GPGPU-Sim uArch: Shader 21 bind to kernel 1 '_Z22bpnn_layerforward_CUDAPfS_S_S_ii'
GPGPU-Sim uArch: Shader 22 bind to kernel 1 '_Z22bpnn_layerforward_CUDAPfS_S_S_ii'
GPGPU-Sim uArch: Shader 23 bind to kernel 1 '_Z22bpnn_layerforward_CUDAPfS_S_S_ii'
GPGPU-Sim uArch: Shader 24 bind to kernel 1 '_Z22bpnn_layerforward_CUDAPfS_S_S_ii'
GPGPU-Sim uArch: Shader 25 bind to kernel 1 '_Z22bpnn_layerforward_CUDAPfS_S_S_ii'
GPGPU-Sim uArch: Shader 26 bind to kernel 1 '_Z22bpnn_layerforward_CUDAPfS_S_S_ii'
GPGPU-Sim uArch: Shader 27 bind to kernel 1 '_Z22bpnn_layerforward_CUDAPfS_S_S_ii'
GPGPU-Sim uArch: Shader 0 bind to kernel 1 '_Z22bpnn_layerforward_CUDAPfS_S_S_ii'
GPGPU-Sim uArch: Shader 1 bind to kernel 1 '_Z22bpnn_layerforward_CUDAPfS_S_S_ii'
GPGPU-Sim uArch: Shader 2 bind to kernel 1 '_Z22bpnn_layerforward_CUDAPfS_S_S_ii'
GPGPU-Sim uArch: Shader 3 bind to kernel 1 '_Z22bpnn_layerforward_CUDAPfS_S_S_ii'
GPGPU-Sim uArch: Shader 4 bind to kernel 1 '_Z22bpnn_layerforward_CUDAPfS_S_S_ii'
GPGPU-Sim uArch: Shader 27 bind to kernel 1 '_Z22bpnn_layerforward_CUDAPfS_S_S_ii'
GPGPU-Sim uArch: Shader 0 bind to kernel 1 '_Z22bpnn_layerforward_CUDAPfS_S_S_ii'
GPGPU-Sim uArch: Shader 1 bind to kernel 1 '_Z22bpnn_layerforward_CUDAPfS_S_S_ii'
GPGPU-Sim uArch: Shader 2 bind to kernel 1 '_Z22bpnn_layerforward_CUDAPfS_S_S_ii'
GPGPU-Sim uArch: Shader 3 bind to kernel 1 '_Z22bpnn_layerforward_CUDAPfS_S_S_ii'
GPGPU-Sim uArch: Shader 4 bind to kernel 1 '_Z22bpnn_layerforward_CUDAPfS_S_S_ii'
GPGPU-Sim uArch: Shader 5 bind to kernel 1 '_Z22bpnn_layerforward_CUDAPfS_S_S_ii'
GPGPU-Sim uArch: Shader 6 bind to kernel 1 '_Z22bpnn_layerforward_CUDAPfS_S_S_ii'
GPGPU-Sim uArch: Shader 7 bind to kernel 1 '_Z22bpnn_layerforward_CUDAPfS_S_S_ii'
GPGPU-Sim uArch: Shader 9 bind to kernel 1 '_Z22bpnn_layerforward_CUDAPfS_S_S_ii'
GPGPU-Sim uArch: Shader 10 bind to kernel 1 '_Z22bpnn_layerforward_CUDAPfS_S_S_ii'
GPGPU-Sim uArch: Shader 11 bind to kernel 1 '_Z22bpnn_layerforward_CUDAPfS_S_S_ii'
GPGPU-Sim uArch: Shader 12 bind to kernel 1 '_Z22bpnn_layerforward_CUDAPfS_S_S_ii'
GPGPU-Sim uArch: Shader 13 bind to kernel 1 '_Z22bpnn_layerforward_CUDAPfS_S_S_ii'
GPGPU-Sim uArch: Shader 15 bind to kernel 1 '_Z22bpnn_layerforward_CUDAPfS_S_S_ii'
GPGPU-Sim uArch: Shader 16 bind to kernel 1 '_Z22bpnn_layerforward_CUDAPfS_S_S_ii'
GPGPU-Sim uArch: Shader 17 bind to kernel 1 '_Z22bpnn_layerforward_CUDAPfS_S_S_ii'
GPGPU-Sim uArch: Shader 19 bind to kernel 1 '_Z22bpnn_layerforward_CUDAPfS_S_S_ii'
GPGPU-Sim uArch: Shader 21 bind to kernel 1 '_Z22bpnn_layerforward_CUDAPfS_S_S_ii'
GPGPU-Sim uArch: Shader 22 bind to kernel 1 '_Z22bpnn_layerforward_CUDAPfS_S_S_ii'
GPGPU-Sim uArch: Shader 23 bind to kernel 1 '_Z22bpnn_layerforward_CUDAPfS_S_S_ii'
GPGPU-Sim uArch: Shader 25 bind to kernel 1 '_Z22bpnn_layerforward_CUDAPfS_S_S_ii'
GPGPU-Sim uArch: Shader 5 bind to kernel 1 '_Z22bpnn_layerforward_CUDAPfS_S_S_ii'
GPGPU-Sim uArch: Shader 7 bind to kernel 1 '_Z22bpnn_layerforward_CUDAPfS_S_S_ii'
GPGPU-Sim uArch: Shader 9 bind to kernel 1 '_Z22bpnn_layerforward_CUDAPfS_S_S_ii'
GPGPU-Sim uArch: Shader 10 bind to kernel 1 '_Z22bpnn_layerforward_CUDAPfS_S_S_ii'
GPGPU-Sim uArch: Shader 12 bind to kernel 1 '_Z22bpnn_layerforward_CUDAPfS_S_S_ii'
GPGPU-Sim uArch: Shader 23 bind to kernel 1 '_Z22bpnn_layerforward_CUDAPfS_S_S_ii'
GPGPU-Sim uArch: Shader 25 bind to kernel 1 '_Z22bpnn_layerforward_CUDAPfS_S_S_ii'
GPGPU-Sim uArch: Shader 26 bind to kernel 1 '_Z22bpnn_layerforward_CUDAPfS_S_S_ii'
GPGPU-Sim uArch: Shader 27 bind to kernel 1 '_Z22bpnn_layerforward_CUDAPfS_S_S_ii'
GPGPU-Sim uArch: Shader 3 bind to kernel 1 '_Z22bpnn_layerforward_CUDAPfS_S_S_ii'
GPGPU-Sim uArch: Shader 6 bind to kernel 1 '_Z22bpnn_layerforward_CUDAPfS_S_S_ii'
GPGPU-Sim uArch: Shader 7 bind to kernel 1 '_Z22bpnn_layerforward_CUDAPfS_S_S_ii'
GPGPU-Sim uArch: Shader 12 bind to kernel 1 '_Z22bpnn_layerforward_CUDAPfS_S_S_ii'
GPGPU-Sim uArch: Shader 14 bind to kernel 1 '_Z22bpnn_layerforward_CUDAPfS_S_S_ii'
GPGPU-Sim uArch: Shader 16 bind to kernel 1 '_Z22bpnn_layerforward_CUDAPfS_S_S_ii'
GPGPU-Sim uArch: Shader 18 bind to kernel 1 '_Z22bpnn_layerforward_CUDAPfS_S_S_ii'
GPGPU-Sim uArch: Shader 20 bind to kernel 1 '_Z22bpnn_layerforward_CUDAPfS_S_S_ii'
GPGPU-Sim uArch: Shader 22 bind to kernel 1 '_Z22bpnn_layerforward_CUDAPfS_S_S_ii'
GPGPU-Sim uArch: Shader 23 bind to kernel 1 '_Z22bpnn_layerforward_CUDAPfS_S_S_ii'
GPGPU-Sim uArch: Shader 26 bind to kernel 1 '_Z22bpnn_layerforward_CUDAPfS_S_S_ii'
GPGPU-Sim uArch: Shader 27 bind to kernel 1 '_Z22bpnn_layerforward_CUDAPfS_S_S_ii'
GPGPU-Sim uArch: Shader 1 bind to kernel 1 '_Z22bpnn_layerforward_CUDAPfS_S_S_ii'
GPGPU-Sim uArch: Shader 2 bind to kernel 1 '_Z22bpnn_layerforward_CUDAPfS_S_S_ii'
GPGPU-Sim uArch: Shader 3 bind to kernel 1 '_Z22bpnn_layerforward_CUDAPfS_S_S_ii'
GPGPU-Sim uArch: Shader 4 bind to kernel 1 '_Z22bpnn_layerforward_CUDAPfS_S_S_ii'
GPGPU-Sim uArch: Shader 5 bind to kernel 1 '_Z22bpnn_layerforward_CUDAPfS_S_S_ii'
GPGPU-Sim uArch: Shader 6 bind to kernel 1 '_Z22bpnn_layerforward_CUDAPfS_S_S_ii'
GPGPU-Sim uArch: Shader 7 bind to kernel 1 '_Z22bpnn_layerforward_CUDAPfS_S_S_ii'
GPGPU-Sim uArch: Shader 8 bind to kernel 1 '_Z22bpnn_layerforward_CUDAPfS_S_S_ii'
GPGPU-Sim uArch: Shader 9 bind to kernel 1 '_Z22bpnn_layerforward_CUDAPfS_S_S_ii'
GPGPU-Sim uArch: Shader 10 bind to kernel 1 '_Z22bpnn_layerforward_CUDAPfS_S_S_ii'
GPGPU-Sim uArch: Shader 11 bind to kernel 1 '_Z22bpnn_layerforward_CUDAPfS_S_S_ii'
GPGPU-Sim uArch: Shader 12 bind to kernel 1 '_Z22bpnn_layerforward_CUDAPfS_S_S_ii'
GPGPU-Sim uArch: Shader 13 bind to kernel 1 '_Z22bpnn_layerforward_CUDAPfS_S_S_ii'
GPGPU-Sim uArch: Shader 14 bind to kernel 1 '_Z22bpnn_layerforward_CUDAPfS_S_S_ii'
GPGPU-Sim uArch: Shader 15 bind to kernel 1 '_Z22bpnn_layerforward_CUDAPfS_S_S_ii'
GPGPU-Sim uArch: Shader 16 bind to kernel 1 '_Z22bpnn_layerforward_CUDAPfS_S_S_ii'
GPGPU-Sim uArch: Shader 17 bind to kernel 1 '_Z22bpnn_layerforward_CUDAPfS_S_S_ii'
GPGPU-Sim uArch: Shader 18 bind to kernel 1 '_Z22bpnn_layerforward_CUDAPfS_S_S_ii'
GPGPU-Sim uArch: Shader 19 bind to kernel 1 '_Z22bpnn_layerforward_CUDAPfS_S_S_ii'
GPGPU-Sim uArch: Shader 20 bind to kernel 1 '_Z22bpnn_layerforward_CUDAPfS_S_S_ii'
GPGPU-Sim uArch: Shader 21 bind to kernel 1 '_Z22bpnn_layerforward_CUDAPfS_S_S_ii'
GPGPU-Sim uArch: Shader 22 bind to kernel 1 '_Z22bpnn_layerforward_CUDAPfS_S_S_ii'
GPGPU-Sim uArch: Shader 23 bind to kernel 1 '_Z22bpnn_layerforward_CUDAPfS_S_S_ii'
GPGPU-Sim uArch: Shader 24 bind to kernel 1 '_Z22bpnn_layerforward_CUDAPfS_S_S_ii'
GPGPU-Sim uArch: Shader 25 bind to kernel 1 '_Z22bpnn_layerforward_CUDAPfS_S_S_ii'
GPGPU-Sim uArch: Shader 26 bind to kernel 1 '_Z22bpnn_layerforward_CUDAPfS_S_S_ii'
GPGPU-Sim uArch: Shader 27 bind to kernel 1 '_Z22bpnn_layerforward_CUDAPfS_S_S_ii'
GPGPU-Sim uArch: Shader 0 bind to kernel 1 '_Z22bpnn_layerforward_CUDAPfS_S_S_ii'
GPGPU-Sim uArch: Shader 1 bind to kernel 1 '_Z22bpnn_layerforward_CUDAPfS_S_S_ii'
GPGPU-Sim uArch: Shader 2 bind to kernel 1 '_Z22bpnn_layerforward_CUDAPfS_S_S_ii'
GPGPU-Sim uArch: Shader 3 bind to kernel 1 '_Z22bpnn_layerforward_CUDAPfS_S_S_ii'
GPGPU-Sim uArch: Shader 4 bind to kernel 1 '_Z22bpnn_layerforward_CUDAPfS_S_S_ii'
GPGPU-Sim uArch: Shader 5 bind to kernel 1 '_Z22bpnn_layerforward_CUDAPfS_S_S_ii'
GPGPU-Sim uArch: Shader 6 bind to kernel 1 '_Z22bpnn_layerforward_CUDAPfS_S_S_ii'
GPGPU-Sim uArch: Shader 7 bind to kernel 1 '_Z22bpnn_layerforward_CUDAPfS_S_S_ii'
GPGPU-Sim uArch: Shader 8 bind to kernel 1 '_Z22bpnn_layerforward_CUDAPfS_S_S_ii'
GPGPU-Sim uArch: Shader 9 bind to kernel 1 '_Z22bpnn_layerforward_CUDAPfS_S_S_ii'
GPGPU-Sim uArch: Shader 10 bind to kernel 1 '_Z22bpnn_layerforward_CUDAPfS_S_S_ii'
GPGPU-Sim uArch: Shader 11 bind to kernel 1 '_Z22bpnn_layerforward_CUDAPfS_S_S_ii'
GPGPU-Sim uArch: Shader 11 bind to kernel 1 '_Z22bpnn_layerforward_CUDAPfS_S_S_ii'
GPGPU-Sim uArch: Shader 24 bind to kernel 1 '_Z22bpnn_layerforward_CUDAPfS_S_S_ii'
GPGPU-Sim uArch: Shader 25 bind to kernel 1 '_Z22bpnn_layerforward_CUDAPfS_S_S_ii'
GPGPU-Sim uArch: Shader 27 bind to kernel 1 '_Z22bpnn_layerforward_CUDAPfS_S_S_ii'
GPGPU-Sim uArch: Shader 26 bind to kernel 1 '_Z22bpnn_layerforward_CUDAPfS_S_S_ii'
GPGPU-Sim uArch: Shader 27 bind to kernel 1 '_Z22bpnn_layerforward_CUDAPfS_S_S_ii'
GPGPU-Sim uArch: Shader 0 bind to kernel 1 '_Z22bpnn_layerforward_CUDAPfS_S_S_ii'
GPGPU-Sim uArch: Shader 1 bind to kernel 1 '_Z22bpnn_layerforward_CUDAPfS_S_S_ii'
GPGPU-Sim uArch: Shader 2 bind to kernel 1 '_Z22bpnn_layerforward_CUDAPfS_S_S_ii'
GPGPU-Sim uArch: Shader 3 bind to kernel 1 '_Z22bpnn_layerforward_CUDAPfS_S_S_ii'
GPGPU-Sim uArch: Shader 4 bind to kernel 1 '_Z22bpnn_layerforward_CUDAPfS_S_S_ii'
GPGPU-Sim uArch: Shader 5 bind to kernel 1 '_Z22bpnn_layerforward_CUDAPfS_S_S_ii'
GPGPU-Sim uArch: Shader 6 bind to kernel 1 '_Z22bpnn_layerforward_CUDAPfS_S_S_ii'
GPGPU-Sim uArch: Shader 7 bind to kernel 1 '_Z22bpnn_layerforward_CUDAPfS_S_S_ii'
GPGPU-Sim uArch: Shader 8 bind to kernel 1 '_Z22bpnn_layerforward_CUDAPfS_S_S_ii'
GPGPU-Sim uArch: Shader 9 bind to kernel 1 '_Z22bpnn_layerforward_CUDAPfS_S_S_ii'
GPGPU-Sim uArch: Shader 10 bind to kernel 1 '_Z22bpnn_layerforward_CUDAPfS_S_S_ii'
GPGPU-Sim uArch: Shader 11 bind to kernel 1 '_Z22bpnn_layerforward_CUDAPfS_S_S_ii'
GPGPU-Sim uArch: Shader 12 bind to kernel 1 '_Z22bpnn_layerforward_CUDAPfS_S_S_ii'
GPGPU-Sim uArch: Shader 13 bind to kernel 1 '_Z22bpnn_layerforward_CUDAPfS_S_S_ii'
GPGPU-Sim uArch: Shader 14 bind to kernel 1 '_Z22bpnn_layerforward_CUDAPfS_S_S_ii'
GPGPU-Sim uArch: Shader 15 bind to kernel 1 '_Z22bpnn_layerforward_CUDAPfS_S_S_ii'
GPGPU-Sim uArch: Shader 16 bind to kernel 1 '_Z22bpnn_layerforward_CUDAPfS_S_S_ii'
GPGPU-Sim uArch: Shader 17 bind to kernel 1 '_Z22bpnn_layerforward_CUDAPfS_S_S_ii'
GPGPU-Sim uArch: Shader 18 bind to kernel 1 '_Z22bpnn_layerforward_CUDAPfS_S_S_ii'
GPGPU-Sim uArch: Shader 19 bind to kernel 1 '_Z22bpnn_layerforward_CUDAPfS_S_S_ii'
GPGPU-Sim uArch: Shader 20 bind to kernel 1 '_Z22bpnn_layerforward_CUDAPfS_S_S_ii'
GPGPU-Sim uArch: Shader 21 bind to kernel 1 '_Z22bpnn_layerforward_CUDAPfS_S_S_ii'
GPGPU-Sim uArch: Shader 22 bind to kernel 1 '_Z22bpnn_layerforward_CUDAPfS_S_S_ii'
GPGPU-Sim uArch: Shader 23 bind to kernel 1 '_Z22bpnn_layerforward_CUDAPfS_S_S_ii'
GPGPU-Sim uArch: Shader 24 bind to kernel 1 '_Z22bpnn_layerforward_CUDAPfS_S_S_ii'
GPGPU-Sim uArch: Shader 25 bind to kernel 1 '_Z22bpnn_layerforward_CUDAPfS_S_S_ii'
GPGPU-Sim uArch: Shader 8 bind to kernel 1 '_Z22bpnn_layerforward_CUDAPfS_S_S_ii'
GPGPU-Sim uArch: Shader 10 bind to kernel 1 '_Z22bpnn_layerforward_CUDAPfS_S_S_ii'
GPGPU-Sim uArch: Shader 21 bind to kernel 1 '_Z22bpnn_layerforward_CUDAPfS_S_S_ii'
GPGPU-Sim uArch: Shader 23 bind to kernel 1 '_Z22bpnn_layerforward_CUDAPfS_S_S_ii'
GPGPU-Sim uArch: Shader 17 bind to kernel 1 '_Z22bpnn_layerforward_CUDAPfS_S_S_ii'
GPGPU-Sim uArch: Shader 18 bind to kernel 1 '_Z22bpnn_layerforward_CUDAPfS_S_S_ii'
GPGPU-Sim uArch: Shader 19 bind to kernel 1 '_Z22bpnn_layerforward_CUDAPfS_S_S_ii'
GPGPU-Sim uArch: Shader 20 bind to kernel 1 '_Z22bpnn_layerforward_CUDAPfS_S_S_ii'
GPGPU-Sim uArch: Shader 2 bind to kernel 1 '_Z22bpnn_layerforward_CUDAPfS_S_S_ii'
GPGPU-Sim uArch: Shader 1 bind to kernel 1 '_Z22bpnn_layerforward_CUDAPfS_S_S_ii'
GPGPU-Sim uArch: Shader 2 bind to kernel 1 '_Z22bpnn_layerforward_CUDAPfS_S_S_ii'
GPGPU-Sim uArch: Shader 3 bind to kernel 1 '_Z22bpnn_layerforward_CUDAPfS_S_S_ii'
GPGPU-Sim uArch: Shader 4 bind to kernel 1 '_Z22bpnn_layerforward_CUDAPfS_S_S_ii'
GPGPU-Sim uArch: Shader 5 bind to kernel 1 '_Z22bpnn_layerforward_CUDAPfS_S_S_ii'
GPGPU-Sim uArch: Shader 6 bind to kernel 1 '_Z22bpnn_layerforward_CUDAPfS_S_S_ii'
GPGPU-Sim uArch: Shader 7 bind to kernel 1 '_Z22bpnn_layerforward_CUDAPfS_S_S_ii'
GPGPU-Sim uArch: Shader 8 bind to kernel 1 '_Z22bpnn_layerforward_CUDAPfS_S_S_ii'
GPGPU-Sim uArch: Shader 9 bind to kernel 1 '_Z22bpnn_layerforward_CUDAPfS_S_S_ii'
GPGPU-Sim uArch: Shader 10 bind to kernel 1 '_Z22bpnn_layerforward_CUDAPfS_S_S_ii'
GPGPU-Sim uArch: Shader 11 bind to kernel 1 '_Z22bpnn_layerforward_CUDAPfS_S_S_ii'
GPGPU-Sim uArch: Shader 12 bind to kernel 1 '_Z22bpnn_layerforward_CUDAPfS_S_S_ii'
GPGPU-Sim uArch: Shader 13 bind to kernel 1 '_Z22bpnn_layerforward_CUDAPfS_S_S_ii'
GPGPU-Sim uArch: Shader 14 bind to kernel 1 '_Z22bpnn_layerforward_CUDAPfS_S_S_ii'
GPGPU-Sim uArch: Shader 15 bind to kernel 1 '_Z22bpnn_layerforward_CUDAPfS_S_S_ii'
GPGPU-Sim uArch: Shader 16 bind to kernel 1 '_Z22bpnn_layerforward_CUDAPfS_S_S_ii'
GPGPU-Sim uArch: Shader 17 bind to kernel 1 '_Z22bpnn_layerforward_CUDAPfS_S_S_ii'
GPGPU-Sim uArch: Shader 18 bind to kernel 1 '_Z22bpnn_layerforward_CUDAPfS_S_S_ii'
GPGPU-Sim uArch: Shader 19 bind to kernel 1 '_Z22bpnn_layerforward_CUDAPfS_S_S_ii'
GPGPU-Sim uArch: Shader 20 bind to kernel 1 '_Z22bpnn_layerforward_CUDAPfS_S_S_ii'
GPGPU-Sim uArch: Shader 21 bind to kernel 1 '_Z22bpnn_layerforward_CUDAPfS_S_S_ii'
GPGPU-Sim uArch: Shader 22 bind to kernel 1 '_Z22bpnn_layerforward_CUDAPfS_S_S_ii'
GPGPU-Sim uArch: Shader 23 bind to kernel 1 '_Z22bpnn_layerforward_CUDAPfS_S_S_ii'
GPGPU-Sim uArch: Shader 24 bind to kernel 1 '_Z22bpnn_layerforward_CUDAPfS_S_S_ii'
GPGPU-Sim uArch: Shader 25 bind to kernel 1 '_Z22bpnn_layerforward_CUDAPfS_S_S_ii'
GPGPU-Sim uArch: Shader 26 bind to kernel 1 '_Z22bpnn_layerforward_CUDAPfS_S_S_ii'
GPGPU-Sim uArch: Shader 27 bind to kernel 1 '_Z22bpnn_layerforward_CUDAPfS_S_S_ii'
GPGPU-Sim uArch: Shader 0 bind to kernel 1 '_Z22bpnn_layerforward_CUDAPfS_S_S_ii'
GPGPU-Sim uArch: Shader 1 bind to kernel 1 '_Z22bpnn_layerforward_CUDAPfS_S_S_ii'
GPGPU-Sim uArch: Shader 2 bind to kernel 1 '_Z22bpnn_layerforward_CUDAPfS_S_S_ii'
GPGPU-Sim uArch: Shader 3 bind to kernel 1 '_Z22bpnn_layerforward_CUDAPfS_S_S_ii'
GPGPU-Sim uArch: Shader 4 bind to kernel 1 '_Z22bpnn_layerforward_CUDAPfS_S_S_ii'
GPGPU-Sim uArch: Shader 5 bind to kernel 1 '_Z22bpnn_layerforward_CUDAPfS_S_S_ii'
GPGPU-Sim uArch: Shader 6 bind to kernel 1 '_Z22bpnn_layerforward_CUDAPfS_S_S_ii'
GPGPU-Sim uArch: Shader 7 bind to kernel 1 '_Z22bpnn_layerforward_CUDAPfS_S_S_ii'
Destroy streams for kernel 1: size 0
kernel_name = _Z22bpnn_layerforward_CUDAPfS_S_S_ii 
kernel_launch_uid = 1 
gpu_sim_cycle = 1401466
gpu_sim_insn = 224892096
gpu_ipc =     160.4692
gpu_tot_sim_cycle = 1623616
gpu_tot_sim_insn = 224892096
gpu_tot_ipc =     138.5131
gpu_tot_issued_cta = 8191
max_total_param_size = 0
gpu_stall_dramfull = 76128
gpu_stall_icnt2sh    = 291564
partiton_reqs_in_parallel = 30756124
partiton_reqs_in_parallel_total    = 0
partiton_level_parallism =      21.9457
partiton_level_parallism_total  =      18.9430
partiton_reqs_in_parallel_util = 30756124
partiton_reqs_in_parallel_util_total    = 0
gpu_sim_cycle_parition_util = 1399730
gpu_tot_sim_cycle_parition_util    = 0
partiton_level_parallism_util =      21.9729
partiton_level_parallism_util_total  =      21.9729
partiton_replys_in_parallel = 397459
partiton_replys_in_parallel_total    = 0
L2_BW  =      26.8810 GB/Sec
L2_BW_total  =      23.2030 GB/Sec
gpu_total_sim_rate=116043

========= Core cache stats =========
L1I_cache:
	L1I_total_cache_accesses = 4677061
	L1I_total_cache_misses = 3489
	L1I_total_cache_miss_rate = 0.0007
	L1I_total_cache_pending_hits = 0
	L1I_total_cache_reservation_fails = 6846
L1D_cache:
	L1D_cache_core[0]: Access = 0, Miss = 0, Miss_rate = -nan, Pending_hits = 0, Reservation_fails = 0
	L1D_cache_core[1]: Access = 0, Miss = 0, Miss_rate = -nan, Pending_hits = 0, Reservation_fails = 0
	L1D_cache_core[2]: Access = 0, Miss = 0, Miss_rate = -nan, Pending_hits = 0, Reservation_fails = 0
	L1D_cache_core[3]: Access = 0, Miss = 0, Miss_rate = -nan, Pending_hits = 0, Reservation_fails = 0
	L1D_cache_core[4]: Access = 0, Miss = 0, Miss_rate = -nan, Pending_hits = 0, Reservation_fails = 0
	L1D_cache_core[5]: Access = 0, Miss = 0, Miss_rate = -nan, Pending_hits = 0, Reservation_fails = 0
	L1D_cache_core[6]: Access = 0, Miss = 0, Miss_rate = -nan, Pending_hits = 0, Reservation_fails = 0
	L1D_cache_core[7]: Access = 0, Miss = 0, Miss_rate = -nan, Pending_hits = 0, Reservation_fails = 0
	L1D_cache_core[8]: Access = 0, Miss = 0, Miss_rate = -nan, Pending_hits = 0, Reservation_fails = 0
	L1D_cache_core[9]: Access = 0, Miss = 0, Miss_rate = -nan, Pending_hits = 0, Reservation_fails = 0
	L1D_cache_core[10]: Access = 0, Miss = 0, Miss_rate = -nan, Pending_hits = 0, Reservation_fails = 0
	L1D_cache_core[11]: Access = 0, Miss = 0, Miss_rate = -nan, Pending_hits = 0, Reservation_fails = 0
	L1D_cache_core[12]: Access = 0, Miss = 0, Miss_rate = -nan, Pending_hits = 0, Reservation_fails = 0
	L1D_cache_core[13]: Access = 0, Miss = 0, Miss_rate = -nan, Pending_hits = 0, Reservation_fails = 0
	L1D_cache_core[14]: Access = 0, Miss = 0, Miss_rate = -nan, Pending_hits = 0, Reservation_fails = 0
	L1D_cache_core[15]: Access = 0, Miss = 0, Miss_rate = -nan, Pending_hits = 0, Reservation_fails = 0
	L1D_cache_core[16]: Access = 0, Miss = 0, Miss_rate = -nan, Pending_hits = 0, Reservation_fails = 0
	L1D_cache_core[17]: Access = 0, Miss = 0, Miss_rate = -nan, Pending_hits = 0, Reservation_fails = 0
	L1D_cache_core[18]: Access = 0, Miss = 0, Miss_rate = -nan, Pending_hits = 0, Reservation_fails = 0
	L1D_cache_core[19]: Access = 0, Miss = 0, Miss_rate = -nan, Pending_hits = 0, Reservation_fails = 0
	L1D_cache_core[20]: Access = 0, Miss = 0, Miss_rate = -nan, Pending_hits = 0, Reservation_fails = 0
	L1D_cache_core[21]: Access = 0, Miss = 0, Miss_rate = -nan, Pending_hits = 0, Reservation_fails = 0
	L1D_cache_core[22]: Access = 0, Miss = 0, Miss_rate = -nan, Pending_hits = 0, Reservation_fails = 0
	L1D_cache_core[23]: Access = 0, Miss = 0, Miss_rate = -nan, Pending_hits = 0, Reservation_fails = 0
	L1D_cache_core[24]: Access = 0, Miss = 0, Miss_rate = -nan, Pending_hits = 0, Reservation_fails = 0
	L1D_cache_core[25]: Access = 0, Miss = 0, Miss_rate = -nan, Pending_hits = 0, Reservation_fails = 0
	L1D_cache_core[26]: Access = 0, Miss = 0, Miss_rate = -nan, Pending_hits = 0, Reservation_fails = 0
	L1D_cache_core[27]: Access = 0, Miss = 0, Miss_rate = -nan, Pending_hits = 0, Reservation_fails = 0
	L1D_total_cache_accesses = 0
	L1D_total_cache_misses = 0
	L1D_total_cache_pending_hits = 0
	L1D_total_cache_reservation_fails = 0
	L1D_cache_data_port_util = 0.000
	L1D_cache_fill_port_util = 0.000
L1C_cache:
	L1C_total_cache_accesses = 262112
	L1C_total_cache_misses = 1792
	L1C_total_cache_miss_rate = 0.0068
	L1C_total_cache_pending_hits = 0
	L1C_total_cache_reservation_fails = 4886
L1T_cache:
	L1T_total_cache_accesses = 0
	L1T_total_cache_misses = 0
	L1T_total_cache_pending_hits = 0
	L1T_total_cache_reservation_fails = 0

Total_core_cache_stats:
	Total_core_cache_stats_breakdown[GLOBAL_ACC_R][HIT] = 0
	Total_core_cache_stats_breakdown[GLOBAL_ACC_R][HIT_RESERVED] = 0
	Total_core_cache_stats_breakdown[GLOBAL_ACC_R][MISS] = 0
	Total_core_cache_stats_breakdown[GLOBAL_ACC_R][RESERVATION_FAIL] = 0
	Total_core_cache_stats_breakdown[LOCAL_ACC_R][HIT] = 0
	Total_core_cache_stats_breakdown[LOCAL_ACC_R][HIT_RESERVED] = 0
	Total_core_cache_stats_breakdown[LOCAL_ACC_R][MISS] = 0
	Total_core_cache_stats_breakdown[LOCAL_ACC_R][RESERVATION_FAIL] = 0
	Total_core_cache_stats_breakdown[CONST_ACC_R][HIT] = 260320
	Total_core_cache_stats_breakdown[CONST_ACC_R][HIT_RESERVED] = 0
	Total_core_cache_stats_breakdown[CONST_ACC_R][MISS] = 1792
	Total_core_cache_stats_breakdown[CONST_ACC_R][RESERVATION_FAIL] = 4886
	Total_core_cache_stats_breakdown[TEXTURE_ACC_R][HIT] = 0
	Total_core_cache_stats_breakdown[TEXTURE_ACC_R][HIT_RESERVED] = 0
	Total_core_cache_stats_breakdown[TEXTURE_ACC_R][MISS] = 0
	Total_core_cache_stats_breakdown[TEXTURE_ACC_R][RESERVATION_FAIL] = 0
	Total_core_cache_stats_breakdown[GLOBAL_ACC_W][HIT] = 0
	Total_core_cache_stats_breakdown[GLOBAL_ACC_W][HIT_RESERVED] = 0
	Total_core_cache_stats_breakdown[GLOBAL_ACC_W][MISS] = 0
	Total_core_cache_stats_breakdown[GLOBAL_ACC_W][RESERVATION_FAIL] = 0
	Total_core_cache_stats_breakdown[LOCAL_ACC_W][HIT] = 0
	Total_core_cache_stats_breakdown[LOCAL_ACC_W][HIT_RESERVED] = 0
	Total_core_cache_stats_breakdown[LOCAL_ACC_W][MISS] = 0
	Total_core_cache_stats_breakdown[LOCAL_ACC_W][RESERVATION_FAIL] = 0
	Total_core_cache_stats_breakdown[L1_WRBK_ACC][HIT] = 0
	Total_core_cache_stats_breakdown[L1_WRBK_ACC][HIT_RESERVED] = 0
	Total_core_cache_stats_breakdown[L1_WRBK_ACC][MISS] = 0
	Total_core_cache_stats_breakdown[L1_WRBK_ACC][RESERVATION_FAIL] = 0
	Total_core_cache_stats_breakdown[L2_WRBK_ACC][HIT] = 0
	Total_core_cache_stats_breakdown[L2_WRBK_ACC][HIT_RESERVED] = 0
	Total_core_cache_stats_breakdown[L2_WRBK_ACC][MISS] = 0
	Total_core_cache_stats_breakdown[L2_WRBK_ACC][RESERVATION_FAIL] = 0
	Total_core_cache_stats_breakdown[INST_ACC_R][HIT] = 4673572
	Total_core_cache_stats_breakdown[INST_ACC_R][HIT_RESERVED] = 0
	Total_core_cache_stats_breakdown[INST_ACC_R][MISS] = 3489
	Total_core_cache_stats_breakdown[INST_ACC_R][RESERVATION_FAIL] = 6846
	Total_core_cache_stats_breakdown[L1_WR_ALLOC_R][HIT] = 0
	Total_core_cache_stats_breakdown[L1_WR_ALLOC_R][HIT_RESERVED] = 0
	Total_core_cache_stats_breakdown[L1_WR_ALLOC_R][MISS] = 0
	Total_core_cache_stats_breakdown[L1_WR_ALLOC_R][RESERVATION_FAIL] = 0
	Total_core_cache_stats_breakdown[L2_WR_ALLOC_R][HIT] = 0
	Total_core_cache_stats_breakdown[L2_WR_ALLOC_R][HIT_RESERVED] = 0
	Total_core_cache_stats_breakdown[L2_WR_ALLOC_R][MISS] = 0
	Total_core_cache_stats_breakdown[L2_WR_ALLOC_R][RESERVATION_FAIL] = 0
	Total_core_cache_stats_breakdown[CONST_ACC_R][TOTAL_ACCESS] = 262112
	Total_core_cache_stats_breakdown[INST_ACC_R][TOTAL_ACCESS] = 4677061
Shader 0 warp_id issue ditsribution:
warp_id:
0, 1, 2, 3, 4, 5, 6, 7, 8, 9, 10, 11, 12, 13, 14, 15, 16, 17, 18, 19, 20, 21, 22, 23, 24, 25, 26, 27, 28, 29, 30, 31, 32, 33, 34, 35, 36, 37, 38, 39, 40, 41, 42, 43, 44, 45, 46, 47, 48, 49, 50, 51, 52, 53, 54, 55, 56, 57, 58, 59, 60, 61, 62, 63, 
distro:
7224, 5730, 6223, 5726, 6749, 5716, 6265, 5754, 6862, 5430, 5907, 5427, 6403, 5424, 5948, 5460, 6868, 5435, 5913, 5420, 6408, 5423, 5947, 5456, 6858, 5438, 5911, 5429, 6407, 5429, 5952, 5472, 6682, 5293, 5752, 5285, 6238, 5270, 5791, 5314, 6140, 4853, 5292, 4849, 5731, 4854, 5326, 4880, 5956, 4714, 5127, 4709, 5559, 4704, 5167, 4741, 5958, 4704, 5128, 4697, 5559, 4698, 5162, 4735, 
gpgpu_n_tot_thrd_icount = 284391520
gpgpu_n_tot_w_icount = 8887235
gpgpu_n_stall_shd_mem = 282858
gpgpu_n_mem_read_local = 0
gpgpu_n_mem_write_local = 0
gpgpu_n_mem_read_global = 200679
gpgpu_n_mem_write_global = 196584
gpgpu_n_mem_texture = 0
gpgpu_n_mem_const = 28
gpgpu_n_load_insn  = 2227952
gpgpu_n_store_insn = 2227952
gpgpu_n_shmem_insn = 16644112
gpgpu_n_tex_insn = 0
gpgpu_n_const_mem_insn = 0
gpgpu_n_param_mem_insn = 8387584
gpgpu_n_shmem_bkconflict = 0
gpgpu_n_cache_bkconflict = 0
gpgpu_n_intrawarp_mshr_merge = 0
gpgpu_n_cmem_portconflict = 4886
gpgpu_stall_shd_mem[c_mem][bk_conf] = 4886
gpgpu_stall_shd_mem[c_mem][mshr_rc] = 0
gpgpu_stall_shd_mem[c_mem][icnt_rc] = 0
gpgpu_stall_shd_mem[c_mem][data_port_stall] = 0
gpgpu_stall_shd_mem[t_mem][mshr_rc] = 0
gpgpu_stall_shd_mem[t_mem][icnt_rc] = 0
gpgpu_stall_shd_mem[t_mem][data_port_stall] = 0
gpgpu_stall_shd_mem[s_mem][bk_conf] = 0
gpgpu_stall_shd_mem[gl_mem][bk_conf] = 0
gpgpu_stall_shd_mem[gl_mem][coal_stall] = 266558
gpgpu_stall_shd_mem[gl_mem][data_port_stall] = 0
gpgpu_stall_shd_mem[g_mem_ld][mshr_rc] = 0
gpgpu_stall_shd_mem[g_mem_ld][icnt_rc] = 11414
gpgpu_stall_shd_mem[g_mem_ld][wb_icnt_rc] = 0
gpgpu_stall_shd_mem[g_mem_ld][wb_rsrv_fail] = 0
gpgpu_stall_shd_mem[g_mem_st][mshr_rc] = 0
gpgpu_stall_shd_mem[g_mem_st][icnt_rc] = 0
gpgpu_stall_shd_mem[g_mem_st][wb_icnt_rc] = 0
gpgpu_stall_shd_mem[g_mem_st][wb_rsrv_fail] = 0
gpgpu_stall_shd_mem[l_mem_ld][mshr_rc] = 0
gpgpu_stall_shd_mem[l_mem_ld][icnt_rc] = 0
gpgpu_stall_shd_mem[l_mem_ld][wb_icnt_rc] = 0
gpgpu_stall_shd_mem[l_mem_ld][wb_rsrv_fail] = 0
gpgpu_stall_shd_mem[l_mem_st][mshr_rc] = 0
gpgpu_stall_shd_mem[l_mem_st][icnt_rc] = 0
gpgpu_stall_shd_mem[l_mem_ld][wb_icnt_rc] = 0
gpgpu_stall_shd_mem[l_mem_ld][wb_rsrv_fail] = 0
gpu_reg_bank_conflict_stalls = 0
Warp Occupancy Distribution:
Stall:358740	W0_Idle:13587181	W0_Scoreboard:56845257	W1:0	W2:1048448	W3:0	W4:0	W5:0	W6:0	W7:0	W8:0	W9:0	W10:0	W11:0	W12:0	W13:0	W14:0	W15:0	W16:1351515	W17:0	W18:0	W19:0	W20:0	W21:0	W22:0	W23:0	W24:0	W25:0	W26:0	W27:0	W28:0	W29:0	W30:0	W31:0	W32:6487272
traffic_breakdown_coretomem[CONST_ACC_R] = 224 {8:28,}
traffic_breakdown_coretomem[GLOBAL_ACC_R] = 1605432 {8:200679,}
traffic_breakdown_coretomem[GLOBAL_ACC_W] = 15202464 {40:98293,72:32763,136:65528,}
traffic_breakdown_coretomem[INST_ACC_R] = 1344 {8:168,}
traffic_breakdown_memtocore[CONST_ACC_R] = 2016 {72:28,}
traffic_breakdown_memtocore[GLOBAL_ACC_R] = 16021592 {40:90101,72:40954,136:69624,}
traffic_breakdown_memtocore[GLOBAL_ACC_W] = 1572672 {8:196584,}
traffic_breakdown_memtocore[INST_ACC_R] = 22848 {136:168,}
maxmrqlatency = 1052 
maxdqlatency = 0 
maxmflatency = 128439 
averagemflatency = 3814 
max_icnt2mem_latency = 128093 
max_icnt2sh_latency = 1623615 
mrq_lat_table:51792 	4107 	7371 	18512 	33964 	20571 	14876 	13674 	14419 	1755 	1 	0 	0 	0 	0 	0 	0 	0 	0 	0 	0 	0 	0 	0 	0 	0 	0 	0 	0 	0 	0 	0 	
dq_lat_table:0 	0 	0 	0 	0 	0 	0 	0 	0 	0 	0 	0 	0 	0 	0 	0 	0 	0 	0 	0 	0 	0 	0 	0 	0 	0 	0 	0 	0 	0 	0 	0 	
mf_lat_table:0 	0 	0 	0 	0 	0 	0 	184932 	151558 	17973 	4145 	3059 	211 	5853 	10293 	16357 	2910 	0 	0 	0 	0 	0 	0 	0 	0 	0 	0 	0 	0 	0 	0 	0 	
icnt2mem_lat_table:0 	0 	72330 	120338 	8968 	227 	148648 	7596 	126 	184 	360 	3060 	209 	6060 	12965 	13478 	2910 	0 	0 	0 	0 	0 	0 	0 	
icnt2sh_lat_table:0 	0 	58859 	96610 	41816 	3379 	43 	0 	0 	0 	0 	0 	0 	0 	0 	0 	0 	2160 	22864 	79328 	92232 	0 	0 	0 	
mf_lat_pw_table:0 	0 	0 	0 	0 	0 	0 	260 	120 	24 	1 	24 	12 	12 	26 	17 	7 	0 	0 	0 	0 	0 	0 	0 	0 	0 	0 	0 	0 	0 	0 	0 	
maximum concurrent accesses to same row:
dram[0]:        69        77        94       119        34        34        34        26        52        34        55        51        85        85        62        77 
dram[1]:        77        85       102        87        28        35        34        29        59        49        49        50        85        85        69        69 
dram[2]:        77        81       103       111        34        43        30        34        59        68        51        35        85        85        77        61 
dram[3]:        77        82        95        96        35        34        34        51        42        51        21        40        85        85        85        60 
dram[4]:        61        85        95        94        26        26        36        34        60        68        42        43        85        85        61        60 
dram[5]:        67        61        89        78        42        34        35        43        68        68        51        51        85        85        69        85 
dram[6]:        69        53        86        96        34        26        34        37        68        68        59        42        85        85        71        68 
dram[7]:        77        69        97        94        41        35        34        42        60        60        43        52        85        85        69        63 
dram[8]:        69        68        94        86        52        35        34        43        44        69        43        43       102       102        77        86 
dram[9]:        69        60        94        94        34        37        40        34        68        60        43        43        85        85        86        85 
dram[10]:        69        61        79        86        37        34        35        34        68        60        35        43        85        85        77        69 
maximum service time to same row:
dram[0]:    134540    134538    132318    132261    136114    136329    150670    150707    150431    150430    149673    149667    149430    149499    132592    145630 
dram[1]:    134537    134540    132314    132325    136088    136008    150708    150694    150430    150426    149642    149641    149538    149498    145298    145412 
dram[2]:    134538    134535    132268    132169    136049    136293    150692    150700    150417    150399    149644    149644    149504    149506    145594    145587 
dram[3]:    134536    134540    132169    132243    136083    136309    150698    150690    150397    150401    149644    149630    149510    149462    145658    145549 
dram[4]:    134538    134538    132188    132179    136053    135993    150686    150681    150401    150378    149630    149634    149469    149461    128928    132521 
dram[5]:    134530    134539    132208    132211    136049    135987    150707    150708    150378    150377    149628    149631    149461    149482    132576    128850 
dram[6]:    134538    134537    132191    132315    136055    135977    150709    150709    150377    150367    149640    149668    149502    149560    132669    128891 
dram[7]:    146438    146231    132353    132383    136056    135989    150707    150706    150366    150348    149639    149640    149528    149515    128862    132526 
dram[8]:    146287    146395    132371    132374    136066    135999    150706    150709    150384    150366    149642    149642    149482    149481    128863    132627 
dram[9]:    146145    146163    132384    132376    136061    136004    150698    150667    150351    150351    149628    149625    149474    149462    128939    132609 
dram[10]:    146179    146275    132353    132305    136110    136312    150665    150647    150350    150351    149618    149619    149461    149515    128906    132555 
average row accesses per activate:
dram[0]:  5.113636  5.333333  5.290179  5.340807  4.012821  4.263393  4.268518  4.490291  4.397196  4.347619  4.322430  4.385714  5.807693  5.750000  5.413462  5.665025 
dram[1]:  5.253394  5.536232  5.389908  5.578948  3.953782  4.328829  4.304147  4.492754  4.165179  4.240909  4.445498  4.224771  5.415790  5.983051  5.309859  5.417476 
dram[2]:  5.454545  5.471154  5.500000  5.748792  4.171806  4.099567  4.521531  4.456731  4.328704  4.367442  4.444976  4.311321  5.603175  5.524064  5.248827  5.374408 
dram[3]:  5.333333  5.128889  5.567307  5.827586  4.144105  4.441315  4.244344  4.304147  4.300926  4.376744  3.941964  4.185520  5.690217  5.949438  5.939699  5.274038 
dram[4]:  4.978355  5.693780  5.594203  5.725962  4.169565  4.304545  4.154185  4.132743  4.397196  4.567961  4.049327  4.128440  5.556757  6.116279  5.289100  5.544554 
dram[5]:  5.113636  5.342857  5.382488  5.625592  4.336323  4.364865  4.153846  4.521951  4.590244  4.502392  4.238318  4.298578  5.737430  5.914773  5.264151  5.509615 
dram[6]:  5.334842  5.134884  5.397260  5.821256  4.166667  4.532710  4.008850  4.397196  4.388889  4.716418  4.270642  4.227907  5.529730  6.029070  5.308756  5.880208 
dram[7]:  5.147321  5.168889  5.316742  5.319635  4.112069  4.315315  4.314815  4.681592  4.382775  4.978836  4.099547  4.311321  5.826816  6.198795  5.403846  5.132701 
dram[8]:  5.214612  5.308756  5.548837  5.702439  4.513889  4.387097  4.567961  4.238532  4.578432  4.814433  4.054054  4.358852  5.782123  5.792350  5.557214  5.148837 
dram[9]:  5.366197  5.287736  5.479452  5.151111  4.142241  4.313901  4.186666  4.567961  4.633663  4.807106  4.125561  4.300469  5.666667  6.034286  5.287736  5.526829 
dram[10]:  5.211982  5.244240  5.069565  5.390134  4.082970  4.291667  4.231482  4.458937  4.500000  4.727723  4.013216  4.178899  5.666667  5.988636  5.130841  5.391304 
average row locality = 181042/37059 = 4.885237
number of total memory accesses made:
dram[0]:         0         0         0         0         0         0         0         0         0         0         0         0         0         0         0         0 
dram[1]:         0         0         0         0         0         0         0         0         0         0         0         0         0         0         0         0 
dram[2]:         0         0         0         0         0         0         0         0         0         0         0         0         0         0         0         0 
dram[3]:         0         0         0         0         0         0         0         0         0         0         0         0         0         0         0         0 
dram[4]:         0         0         0         0         0         0         0         0         0         0         0         0         0         0         0         0 
dram[5]:         0         0         0         0         0         0         0         0         0         0         0         0         0         0         0         0 
dram[6]:         0         0         0         0         0         0         0         0         0         0         0         0         0         0         0         0 
dram[7]:         0         0         0         0         0         0         0         0         0         0         0         0         0         0         0         0 
dram[8]:         0         0         0         0         0         0         0         0         0         0         0         0         0         0         0         0 
dram[9]:         0         0         0         0         0         0         0         0         0         0         0         0         0         0         0         0 
dram[10]:         0         0         0         0         0         0         0         0         0         0         0         0         0         0         0         0 
total accesses: 0
min_bank_accesses = 0!
min_chip_accesses = 0!
number of total read accesses:
dram[0]:       453       452       456       456       435       435       432       432       432       432       434       434       448       448       448       448 
dram[1]:       452       452       456       456       435       435       432       432       432       432       435       435       448       448       448       448 
dram[2]:       452       452       456       456       435       435       432       432       432       432       435       435       448       448       448       448 
dram[3]:       452       452       455       455       435       435       432       432       432       432       435       435       448       448       448       448 
dram[4]:       452       452       455       455       435       435       432       432       432       432       435       435       448       447       449       449 
dram[5]:       452       452       455       455       435       435       432       432       432       432       435       435       447       447       449       449 
dram[6]:       452       452       455       455       435       435       432       432       432       432       435       435       447       447       449       449 
dram[7]:       453       453       455       455       435       435       432       432       432       432       435       435       447       447       448       448 
dram[8]:       453       453       455       455       435       435       432       432       432       432       435       435       448       448       448       448 
dram[9]:       453       453       455       455       435       435       432       432       432       432       435       435       448       448       448       448 
dram[10]:       453       453       455       455       434       434       432       432       432       432       435       435       448       448       448       448 
total reads: 77824
bank skew: 456/432 = 1.06
chip skew: 7076/7074 = 1.00
number of total write accesses:
dram[0]:       672       700       729       735       504       520       490       493       509       481       491       487       609       610       678       702 
dram[1]:       709       694       719       710       506       526       502       498       501       501       503       486       581       611       683       668 
dram[2]:       688       686       732       734       512       512       513       495       503       507       494       479       611       585       670       686 
dram[3]:       700       702       703       728       514       511       506       502       497       509       448       490       599       611       734       649 
dram[4]:       698       738       703       736       524       512       511       502       509       509       468       465       580       605       667       671 
dram[5]:       673       670       713       732       532       534       486       495       509       509       472       472       580       594       667       697 
dram[6]:       727       652       727       750       515       535       474       509       516       516       496       474       576       590       703       680 
dram[7]:       700       710       720       710       519       523       500       509       484       509       471       479       596       582       676       635 
dram[8]:       689       699       738       714       540       517       509       492       502       502       465       476       587       612       669       659 
dram[9]:       690       668       745       704       526       527       510       509       504       515       485       481       589       608       673       685 
dram[10]:       678       685       711       747       501       493       482       491       522       523       476       476       606       606       650       668 
total reads: 103218
bank skew: 750/448 = 1.67
chip skew: 9440/9315 = 1.01
average mf latency per bank:
dram[0]:       8746      8535      7967      8012      7223      7006      8064      8074     10873     11373     10190     10267      8549      8706      4196      3775
dram[1]:       8734      8883      8127      8299      7103      7069      8363      8374     10927     10858     10055     10427      8890      8378      3838      4012
dram[2]:       9034      9027      7958      7972      7147      7148      8291      8285     10814     10713     10370     10584      8304      8600      4045      4019
dram[3]:       8746      8506      8438      8266      7053      7122      8174      8255     10990     10794     10928     10227      8626      8546      3712      3997
dram[4]:       8585      8395      8528      8175      7233      7295      8176      8332     10951     10413     10499     10578      8799      8479      5956      5937
dram[5]:       9107      9034      8363      8236      7161      6979      8422      8436     10344     10293     10732     10689      8505      8459      5957      5799
dram[6]:       8625      9214      8269      8238      7079      7011      8685      8420     10134     10347     10364     10609      8784      8741      5754      5879
dram[7]:       8960      8821      8413      8269      7043      7072      8549      8453     10691     10354     10511     10609      8528      8601      5934      6189
dram[8]:       8806      8773      8267      8409      6880      7048      8424      8363     10274     10195     10721     10475      9090      8826      5997      6046
dram[9]:       8808      9036      8258      8535      6987      7012      8235      8312     11033     10745     10402     10398      8922      8604      5808      5732
dram[10]:       8958      8919      8454      7767      7266      7245      8460      8381     10619     10521     10901     10972      8401      8293      5924      5744
maximum mf latency per bank:
dram[0]:     123984    124048    123860    123891     63308     63316    128296    128311    128273    128307    123997    124093    126104    126132    126099    125748
dram[1]:     123990    124062    123803    123858     63319     63324    128299    128304    128273    128313    123976    123865    126092    126048    125732    125748
dram[2]:     124001    124073    123818    123867     63329     63337    128394    128411    128359    128358    123851    124006    126023    126048    125730    125751
dram[3]:     123997    124059    123812    123852     63334     63344    128411    128412    128342    128371    123941    123932    126065    126084    125709    125751
dram[4]:     123991    124061    123817    123844     63345     63354    128401    128402    128342    128368    123908    123962    126071    126138    126660    126589
dram[5]:     124024    124081    123826    123848     63335     63356    128334    128338    128234    128269    123931    123990    126075    126157    126587    126607
dram[6]:     124017    124101    123805    123853     63322     63300    128439    128439    128330    128353    123935    123992    126080    126086    126551    126549
dram[7]:     124010    124041    123803    123835     63333     63424    128337    128308    128212    128151    123938    124001    126058    126090    126500    126472
dram[8]:     123982    124074    123878    123912     63333     63337    128307    128312    128123    128150    123955    123970    126092    126096    126418    126391
dram[9]:     124006    124077    123876    123910     63342     63324    128312    128319    128113    128141    123905    123901    126102    126123    126321    126286
dram[10]:     124014    124092    123859    123882     63329     63301    128318    128328    128107    128136    123986    124072    126101    126130    126255    126286
Memory Partition 0: 
Cache L2_bank_000:
MSHR contents

Cache L2_bank_001:
MSHR contents

In Dram Latency Queue (total = 0): 
DRAM[0]: 16 bks, busW=4 BL=8 CL=12, tRRD=2 tCCD=6, tRCD=12 tRAS=28 tRP=12 tRC=40
n_cmd=2602316 n_nop=2544047 n_act=3389 n_pre=3373 n_req=16485 n_rd=28300 n_write=23207 bw_util=0.03959
n_activity=159592 dram_eff=0.6455
bk0: 1812a 2576692i bk1: 1808a 2574792i bk2: 1824a 2574529i bk3: 1824a 2573084i bk4: 1740a 2575697i bk5: 1740a 2573588i bk6: 1728a 2576689i bk7: 1728a 2577048i bk8: 1728a 2579158i bk9: 1728a 2575800i bk10: 1736a 2575435i bk11: 1736a 2575158i bk12: 1792a 2575729i bk13: 1792a 2574107i bk14: 1792a 2574579i bk15: 1792a 2573383i 
dram_util_bins: 0 0 0 0 0 0 0 0 0 0
dram_eff_bins: 0 0 0 0 0 0 0 0 0 0
mrqq: max=64 avg=0.760437
Memory Partition 1: 
Cache L2_bank_002:
MSHR contents

Cache L2_bank_003:
MSHR contents

In Dram Latency Queue (total = 0): 
DRAM[1]: 16 bks, busW=4 BL=8 CL=12, tRRD=2 tCCD=6, tRCD=12 tRAS=28 tRP=12 tRC=40
n_cmd=2602316 n_nop=2544019 n_act=3398 n_pre=3382 n_req=16474 n_rd=28304 n_write=23213 bw_util=0.03959
n_activity=159535 dram_eff=0.6458
bk0: 1808a 2576013i bk1: 1808a 2574738i bk2: 1824a 2572979i bk3: 1824a 2571642i bk4: 1740a 2572646i bk5: 1740a 2571907i bk6: 1728a 2578261i bk7: 1728a 2577949i bk8: 1728a 2578069i bk9: 1728a 2576861i bk10: 1740a 2576354i bk11: 1740a 2575036i bk12: 1792a 2575372i bk13: 1792a 2574844i bk14: 1792a 2575005i bk15: 1792a 2573487i 
dram_util_bins: 0 0 0 0 0 0 0 0 0 0
dram_eff_bins: 0 0 0 0 0 0 0 0 0 0
mrqq: max=64 avg=0.759987
Memory Partition 2: 
Cache L2_bank_004:
MSHR contents

Cache L2_bank_005:
MSHR contents

In Dram Latency Queue (total = 0): 
DRAM[2]: 16 bks, busW=4 BL=8 CL=12, tRRD=2 tCCD=6, tRCD=12 tRAS=28 tRP=12 tRC=40
n_cmd=2602316 n_nop=2544081 n_act=3367 n_pre=3351 n_req=16483 n_rd=28304 n_write=23213 bw_util=0.03959
n_activity=159778 dram_eff=0.6449
bk0: 1808a 2576813i bk1: 1808a 2574964i bk2: 1824a 2573202i bk3: 1824a 2572253i bk4: 1740a 2574367i bk5: 1740a 2573425i bk6: 1728a 2577808i bk7: 1728a 2576281i bk8: 1728a 2577534i bk9: 1728a 2575896i bk10: 1740a 2576361i bk11: 1740a 2574101i bk12: 1792a 2576573i bk13: 1792a 2574448i bk14: 1792a 2575267i bk15: 1792a 2572505i 
dram_util_bins: 0 0 0 0 0 0 0 0 0 0
dram_eff_bins: 0 0 0 0 0 0 0 0 0 0
mrqq: max=64 avg=0.769345
Memory Partition 3: 
Cache L2_bank_006:
MSHR contents

Cache L2_bank_007:
MSHR contents

In Dram Latency Queue (total = 0): 
DRAM[3]: 16 bks, busW=4 BL=8 CL=12, tRRD=2 tCCD=6, tRCD=12 tRAS=28 tRP=12 tRC=40
n_cmd=2602316 n_nop=2544037 n_act=3377 n_pre=3361 n_req=16477 n_rd=28296 n_write=23245 bw_util=0.03961
n_activity=159139 dram_eff=0.6477
bk0: 1808a 2575719i bk1: 1808a 2573780i bk2: 1820a 2573211i bk3: 1820a 2572319i bk4: 1740a 2572596i bk5: 1740a 2571563i bk6: 1728a 2575803i bk7: 1728a 2575054i bk8: 1728a 2578014i bk9: 1728a 2575708i bk10: 1740a 2575358i bk11: 1740a 2573437i bk12: 1792a 2575101i bk13: 1792a 2573973i bk14: 1792a 2574929i bk15: 1792a 2572467i 
dram_util_bins: 0 0 0 0 0 0 0 0 0 0
dram_eff_bins: 0 0 0 0 0 0 0 0 0 0
mrqq: max=64 avg=0.784073
Memory Partition 4: 
Cache L2_bank_008:
MSHR contents

Cache L2_bank_009:
MSHR contents

In Dram Latency Queue (total = 0): 
DRAM[4]: 16 bks, busW=4 BL=8 CL=12, tRRD=2 tCCD=6, tRCD=12 tRAS=28 tRP=12 tRC=40
n_cmd=2602316 n_nop=2544047 n_act=3389 n_pre=3373 n_req=16473 n_rd=28300 n_write=23207 bw_util=0.03959
n_activity=160147 dram_eff=0.6432
bk0: 1808a 2575797i bk1: 1808a 2574883i bk2: 1820a 2573239i bk3: 1820a 2571941i bk4: 1740a 2574305i bk5: 1740a 2572882i bk6: 1728a 2577152i bk7: 1728a 2576197i bk8: 1728a 2578744i bk9: 1728a 2577959i bk10: 1740a 2576095i bk11: 1740a 2575361i bk12: 1792a 2576518i bk13: 1788a 2574607i bk14: 1796a 2573965i bk15: 1796a 2572664i 
dram_util_bins: 0 0 0 0 0 0 0 0 0 0
dram_eff_bins: 0 0 0 0 0 0 0 0 0 0
mrqq: max=64 avg=0.768572
Memory Partition 5: 
Cache L2_bank_010:
MSHR contents

Cache L2_bank_011:
MSHR contents

In Dram Latency Queue (total = 0): 
DRAM[5]: 16 bks, busW=4 BL=8 CL=12, tRRD=2 tCCD=6, tRCD=12 tRAS=28 tRP=12 tRC=40
n_cmd=2602316 n_nop=2544203 n_act=3343 n_pre=3327 n_req=16409 n_rd=28296 n_write=23147 bw_util=0.03954
n_activity=157995 dram_eff=0.6512
bk0: 1808a 2575681i bk1: 1808a 2574703i bk2: 1820a 2573891i bk3: 1820a 2573716i bk4: 1740a 2574036i bk5: 1740a 2572910i bk6: 1728a 2576761i bk7: 1728a 2575951i bk8: 1728a 2578624i bk9: 1728a 2576572i bk10: 1740a 2575320i bk11: 1740a 2574749i bk12: 1788a 2576467i bk13: 1788a 2574822i bk14: 1796a 2573909i bk15: 1796a 2571551i 
dram_util_bins: 0 0 0 0 0 0 0 0 0 0
dram_eff_bins: 0 0 0 0 0 0 0 0 0 0
mrqq: max=64 avg=0.773712
Memory Partition 6: 
Cache L2_bank_012:
MSHR contents

Cache L2_bank_013:
MSHR contents

In Dram Latency Queue (total = 0): 
DRAM[6]: 16 bks, busW=4 BL=8 CL=12, tRRD=2 tCCD=6, tRCD=12 tRAS=28 tRP=12 tRC=40
n_cmd=2602316 n_nop=2544064 n_act=3360 n_pre=3344 n_req=16514 n_rd=28296 n_write=23252 bw_util=0.03962
n_activity=159077 dram_eff=0.6481
bk0: 1808a 2575169i bk1: 1808a 2573239i bk2: 1820a 2572256i bk3: 1820a 2571203i bk4: 1740a 2572919i bk5: 1740a 2571405i bk6: 1728a 2575200i bk7: 1728a 2575824i bk8: 1728a 2576666i bk9: 1728a 2577268i bk10: 1740a 2577308i bk11: 1740a 2575269i bk12: 1788a 2575678i bk13: 1788a 2574279i bk14: 1796a 2574219i bk15: 1796a 2573160i 
dram_util_bins: 0 0 0 0 0 0 0 0 0 0
dram_eff_bins: 0 0 0 0 0 0 0 0 0 0
mrqq: max=64 avg=0.77979
Memory Partition 7: 
Cache L2_bank_014:
MSHR contents

Cache L2_bank_015:
MSHR contents

In Dram Latency Queue (total = 0): 
DRAM[7]: 16 bks, busW=4 BL=8 CL=12, tRRD=2 tCCD=6, tRCD=12 tRAS=28 tRP=12 tRC=40
n_cmd=2602316 n_nop=2544140 n_act=3355 n_pre=3339 n_req=16397 n_rd=28296 n_write=23186 bw_util=0.03957
n_activity=157128 dram_eff=0.6553
bk0: 1812a 2573737i bk1: 1812a 2573211i bk2: 1820a 2572675i bk3: 1820a 2570774i bk4: 1740a 2572528i bk5: 1740a 2571227i bk6: 1728a 2575780i bk7: 1728a 2576355i bk8: 1728a 2577824i bk9: 1728a 2577880i bk10: 1740a 2576616i bk11: 1740a 2574107i bk12: 1788a 2575455i bk13: 1788a 2574313i bk14: 1792a 2574156i bk15: 1792a 2573212i 
dram_util_bins: 0 0 0 0 0 0 0 0 0 0
dram_eff_bins: 0 0 0 0 0 0 0 0 0 0
mrqq: max=64 avg=0.773342
Memory Partition 8: 
Cache L2_bank_016:
MSHR contents

Cache L2_bank_017:
MSHR contents

In Dram Latency Queue (total = 0): 
DRAM[8]: 16 bks, busW=4 BL=8 CL=12, tRRD=2 tCCD=6, tRCD=12 tRAS=28 tRP=12 tRC=40
n_cmd=2602316 n_nop=2544194 n_act=3320 n_pre=3304 n_req=16446 n_rd=28304 n_write=23194 bw_util=0.03958
n_activity=156915 dram_eff=0.6564
bk0: 1812a 2575054i bk1: 1812a 2572826i bk2: 1820a 2571850i bk3: 1820a 2571265i bk4: 1740a 2573432i bk5: 1740a 2571783i bk6: 1728a 2577013i bk7: 1728a 2576288i bk8: 1728a 2578036i bk9: 1728a 2577540i bk10: 1740a 2576474i bk11: 1740a 2575064i bk12: 1792a 2575475i bk13: 1792a 2573747i bk14: 1792a 2574543i bk15: 1792a 2572639i 
dram_util_bins: 0 0 0 0 0 0 0 0 0 0
dram_eff_bins: 0 0 0 0 0 0 0 0 0 0
mrqq: max=64 avg=0.771425
Memory Partition 9: 
Cache L2_bank_018:
MSHR contents

Cache L2_bank_019:
MSHR contents

In Dram Latency Queue (total = 0): 
DRAM[9]: 16 bks, busW=4 BL=8 CL=12, tRRD=2 tCCD=6, tRCD=12 tRAS=28 tRP=12 tRC=40
n_cmd=2602316 n_nop=2544085 n_act=3365 n_pre=3349 n_req=16495 n_rd=28304 n_write=23213 bw_util=0.03959
n_activity=158486 dram_eff=0.6501
bk0: 1812a 2575521i bk1: 1812a 2574017i bk2: 1820a 2573550i bk3: 1820a 2570898i bk4: 1740a 2572858i bk5: 1740a 2571583i bk6: 1728a 2575422i bk7: 1728a 2575643i bk8: 1728a 2578547i bk9: 1728a 2577190i bk10: 1740a 2577194i bk11: 1740a 2575526i bk12: 1792a 2575347i bk13: 1792a 2574835i bk14: 1792a 2575160i bk15: 1792a 2573330i 
dram_util_bins: 0 0 0 0 0 0 0 0 0 0
dram_eff_bins: 0 0 0 0 0 0 0 0 0 0
mrqq: max=64 avg=0.771568
Memory Partition 10: 
Cache L2_bank_020:
MSHR contents

Cache L2_bank_021:
MSHR contents

In Dram Latency Queue (total = 0): 
DRAM[10]: 16 bks, busW=4 BL=8 CL=12, tRRD=2 tCCD=6, tRCD=12 tRAS=28 tRP=12 tRC=40
n_cmd=2602316 n_nop=2544106 n_act=3397 n_pre=3381 n_req=16389 n_rd=28296 n_write=23136 bw_util=0.03953
n_activity=159576 dram_eff=0.6446
bk0: 1812a 2575681i bk1: 1812a 2574557i bk2: 1820a 2573024i bk3: 1820a 2573207i bk4: 1736a 2574147i bk5: 1736a 2573750i bk6: 1728a 2576724i bk7: 1728a 2576435i bk8: 1728a 2576711i bk9: 1728a 2576858i bk10: 1740a 2575103i bk11: 1740a 2574380i bk12: 1792a 2575853i bk13: 1792a 2574488i bk14: 1792a 2575456i bk15: 1792a 2573245i 
dram_util_bins: 0 0 0 0 0 0 0 0 0 0
dram_eff_bins: 0 0 0 0 0 0 0 0 0 0
mrqq: max=64 avg=0.762769

========= L2 cache stats =========
L2_cache_bank[0]: Access = 18080, Miss = 3538, Miss_rate = 0.196, Pending_hits = 7477, Reservation_fails = 12
L2_cache_bank[1]: Access = 18054, Miss = 3537, Miss_rate = 0.196, Pending_hits = 7526, Reservation_fails = 15
L2_cache_bank[2]: Access = 18070, Miss = 3538, Miss_rate = 0.196, Pending_hits = 7566, Reservation_fails = 16
L2_cache_bank[3]: Access = 18071, Miss = 3538, Miss_rate = 0.196, Pending_hits = 7476, Reservation_fails = 10
L2_cache_bank[4]: Access = 18071, Miss = 3538, Miss_rate = 0.196, Pending_hits = 7589, Reservation_fails = 9
L2_cache_bank[5]: Access = 18063, Miss = 3538, Miss_rate = 0.196, Pending_hits = 7467, Reservation_fails = 16
L2_cache_bank[6]: Access = 18052, Miss = 3537, Miss_rate = 0.196, Pending_hits = 7531, Reservation_fails = 13
L2_cache_bank[7]: Access = 18052, Miss = 3537, Miss_rate = 0.196, Pending_hits = 7527, Reservation_fails = 13
L2_cache_bank[8]: Access = 18080, Miss = 3538, Miss_rate = 0.196, Pending_hits = 7570, Reservation_fails = 10
L2_cache_bank[9]: Access = 18078, Miss = 3537, Miss_rate = 0.196, Pending_hits = 7592, Reservation_fails = 12
L2_cache_bank[10]: Access = 18078, Miss = 3537, Miss_rate = 0.196, Pending_hits = 7539, Reservation_fails = 20
L2_cache_bank[11]: Access = 18076, Miss = 3537, Miss_rate = 0.196, Pending_hits = 7567, Reservation_fails = 13
L2_cache_bank[12]: Access = 18076, Miss = 3537, Miss_rate = 0.196, Pending_hits = 7611, Reservation_fails = 15
L2_cache_bank[13]: Access = 18078, Miss = 3537, Miss_rate = 0.196, Pending_hits = 7555, Reservation_fails = 9
L2_cache_bank[14]: Access = 18052, Miss = 3537, Miss_rate = 0.196, Pending_hits = 7403, Reservation_fails = 15
L2_cache_bank[15]: Access = 18054, Miss = 3537, Miss_rate = 0.196, Pending_hits = 7456, Reservation_fails = 6
L2_cache_bank[16]: Access = 18068, Miss = 3538, Miss_rate = 0.196, Pending_hits = 7501, Reservation_fails = 8
L2_cache_bank[17]: Access = 18068, Miss = 3538, Miss_rate = 0.196, Pending_hits = 7502, Reservation_fails = 11
L2_cache_bank[18]: Access = 18070, Miss = 3538, Miss_rate = 0.196, Pending_hits = 7580, Reservation_fails = 9
[...]
F:  5799700----T:  5799900 	 St: c19fa580 Sz: 128 	 Sm: 0 	 T: dma(0.135044)
F:  5799900----T:  5800100 	 St: c19fa600 Sz: 32 	 Sm: 0 	 T: dma(0.135044)
F:  5800100----T:  5800300 	 St: c19fc560 Sz: 32 	 Sm: 0 	 T: dma(0.135044)
F:  5800300----T:  5800500 	 St: c19fc580 Sz: 128 	 Sm: 0 	 T: dma(0.135044)
F:  5800500----T:  5800700 	 St: c19ff540 Sz: 64 	 Sm: 0 	 T: dma(0.135044)
F:  5800700----T:  5800900 	 St: c19ff580 Sz: 128 	 Sm: 0 	 T: dma(0.135044)
F:  5800900----T:  5801100 	 St: c19f0a60 Sz: 32 	 Sm: 0 	 T: dma(0.135044)
F:  5801100----T:  5801300 	 St: c19f0a80 Sz: 128 	 Sm: 0 	 T: dma(0.135044)
F:  5801300----T:  5801500 	 St: c1a00740 Sz: 64 	 Sm: 0 	 T: dma(0.135044)
F:  5801500----T:  5801700 	 St: c1a00780 Sz: 128 	 Sm: 0 	 T: dma(0.135044)
F:  5801700----T:  5801900 	 St: c1a00640 Sz: 64 	 Sm: 0 	 T: dma(0.135044)
F:  5801900----T:  5802100 	 St: c1a00680 Sz: 128 	 Sm: 0 	 T: dma(0.135044)
F:  5802100----T:  5802300 	 St: c19fe760 Sz: 32 	 Sm: 0 	 T: dma(0.135044)
F:  5802300----T:  5802500 	 St: c19fe780 Sz: 128 	 Sm: 0 	 T: dma(0.135044)
F:  5802500----T:  5802700 	 St: c1a01a60 Sz: 32 	 Sm: 0 	 T: dma(0.135044)
F:  5802700----T:  5802900 	 St: c1a01a80 Sz: 128 	 Sm: 0 	 T: dma(0.135044)
F:  5802900----T:  5803100 	 St: c19fbe00 Sz: 128 	 Sm: 0 	 T: dma(0.135044)
F:  5803100----T:  5803300 	 St: c19fbe80 Sz: 32 	 Sm: 0 	 T: dma(0.135044)
F:  5803300----T:  5803500 	 St: c1a02d80 Sz: 128 	 Sm: 0 	 T: dma(0.135044)
F:  5803500----T:  5803700 	 St: c1a02e00 Sz: 32 	 Sm: 0 	 T: dma(0.135044)
F:  5803700----T:  5803900 	 St: c19fb580 Sz: 128 	 Sm: 0 	 T: dma(0.135044)
F:  5803900----T:  5804100 	 St: c19fb600 Sz: 32 	 Sm: 0 	 T: dma(0.135044)
F:  5804100----T:  5804300 	 St: c19fb140 Sz: 64 	 Sm: 0 	 T: dma(0.135044)
F:  5804300----T:  5804500 	 St: c19fb180 Sz: 128 	 Sm: 0 	 T: dma(0.135044)
F:  5804500----T:  5804700 	 St: c19fd340 Sz: 64 	 Sm: 0 	 T: dma(0.135044)
F:  5804700----T:  5804900 	 St: c19fd380 Sz: 128 	 Sm: 0 	 T: dma(0.135044)
F:  5804900----T:  5805100 	 St: c1a000e0 Sz: 32 	 Sm: 0 	 T: dma(0.135044)
F:  5805100----T:  5805300 	 St: c1a00100 Sz: 128 	 Sm: 0 	 T: dma(0.135044)
F:  5805300----T:  5805500 	 St: c1a00a80 Sz: 128 	 Sm: 0 	 T: dma(0.135044)
F:  5805500----T:  5805700 	 St: c1a00b00 Sz: 32 	 Sm: 0 	 T: dma(0.135044)
F:  5805700----T:  5805900 	 St: c19f0fc0 Sz: 64 	 Sm: 0 	 T: dma(0.135044)
F:  5805900----T:  5806100 	 St: c19f1000 Sz: 128 	 Sm: 0 	 T: dma(0.135044)
F:  5806100----T:  5806300 	 St: c1a04a40 Sz: 64 	 Sm: 0 	 T: dma(0.135044)
F:  5806300----T:  5806500 	 St: c1a04a80 Sz: 128 	 Sm: 0 	 T: dma(0.135044)
F:  5806500----T:  5806700 	 St: c1a01400 Sz: 128 	 Sm: 0 	 T: dma(0.135044)
F:  5806700----T:  5806900 	 St: c1a01480 Sz: 32 	 Sm: 0 	 T: dma(0.135044)
F:  5806900----T:  5807100 	 St: c1a01600 Sz: 128 	 Sm: 0 	 T: dma(0.135044)
F:  5807100----T:  5807300 	 St: c1a01680 Sz: 64 	 Sm: 0 	 T: dma(0.135044)
F:  5807300----T:  5807500 	 St: c1a03500 Sz: 128 	 Sm: 0 	 T: dma(0.135044)
F:  5807500----T:  5807700 	 St: c1a03580 Sz: 32 	 Sm: 0 	 T: dma(0.135044)
F:  5807700----T:  5807900 	 St: c1a063c0 Sz: 64 	 Sm: 0 	 T: dma(0.135044)
F:  5807900----T:  5808100 	 St: c1a06400 Sz: 128 	 Sm: 0 	 T: dma(0.135044)
F:  5808100----T:  5808300 	 St: c1a01b80 Sz: 128 	 Sm: 0 	 T: dma(0.135044)
F:  5808300----T:  5808500 	 St: c1a01c00 Sz: 32 	 Sm: 0 	 T: dma(0.135044)
F:  5808500----T:  5808700 	 St: c1a04600 Sz: 128 	 Sm: 0 	 T: dma(0.135044)
F:  5808700----T:  5808900 	 St: c1a04680 Sz: 32 	 Sm: 0 	 T: dma(0.135044)
F:  5808900----T:  5809100 	 St: c1a04e80 Sz: 128 	 Sm: 0 	 T: dma(0.135044)
F:  5809100----T:  5809300 	 St: c1a04f00 Sz: 32 	 Sm: 0 	 T: dma(0.135044)
F:  5809300----T:  5809500 	 St: c1a04f80 Sz: 128 	 Sm: 0 	 T: dma(0.135044)
F:  5809500----T:  5809700 	 St: c1a05000 Sz: 32 	 Sm: 0 	 T: dma(0.135044)
F:  5809700----T:  5809900 	 St: c116c340 Sz: 64 	 Sm: 0 	 T: dma(0.135044)
F:  5809900----T:  5810100 	 St: c116c380 Sz: 128 	 Sm: 0 	 T: dma(0.135044)
F:  5810100----T:  5810300 	 St: c116c240 Sz: 64 	 Sm: 0 	 T: dma(0.135044)
F:  5810300----T:  5810500 	 St: c116c280 Sz: 128 	 Sm: 0 	 T: dma(0.135044)
F:  5810500----T:  5810700 	 St: c116c460 Sz: 32 	 Sm: 0 	 T: dma(0.135044)
F:  5810700----T:  5810900 	 St: c116c480 Sz: 128 	 Sm: 0 	 T: dma(0.135044)
F:  5810900----T:  5811100 	 St: c116c560 Sz: 32 	 Sm: 0 	 T: dma(0.135044)
F:  5811100----T:  5811300 	 St: c116c580 Sz: 128 	 Sm: 0 	 T: dma(0.135044)
F:  5811300----T:  5811500 	 St: c116c2c0 Sz: 64 	 Sm: 0 	 T: dma(0.135044)
F:  5811500----T:  5811700 	 St: c116c300 Sz: 128 	 Sm: 0 	 T: dma(0.135044)
F:  5811700----T:  5811900 	 St: c116cf00 Sz: 128 	 Sm: 0 	 T: dma(0.135044)
F:  5811900----T:  5812100 	 St: c116cf80 Sz: 32 	 Sm: 0 	 T: dma(0.135044)
F:  5812100----T:  5812300 	 St: c1160a60 Sz: 32 	 Sm: 0 	 T: dma(0.135044)
F:  5812300----T:  5812500 	 St: c1160a80 Sz: 128 	 Sm: 0 	 T: dma(0.135044)
F:  5812500----T:  5812700 	 St: c116f540 Sz: 64 	 Sm: 0 	 T: dma(0.135044)
F:  5812700----T:  5812900 	 St: c116f580 Sz: 128 	 Sm: 0 	 T: dma(0.135044)
F:  5812900----T:  5813100 	 St: c116f640 Sz: 64 	 Sm: 0 	 T: dma(0.135044)
F:  5813100----T:  5813300 	 St: c116f680 Sz: 128 	 Sm: 0 	 T: dma(0.135044)
F:  5813300----T:  5813500 	 St: c116f860 Sz: 32 	 Sm: 0 	 T: dma(0.135044)
F:  5813500----T:  5813700 	 St: c116f880 Sz: 128 	 Sm: 0 	 T: dma(0.135044)
F:  5813700----T:  5813900 	 St: c116f760 Sz: 32 	 Sm: 0 	 T: dma(0.135044)
F:  5813900----T:  5814100 	 St: c116f780 Sz: 128 	 Sm: 0 	 T: dma(0.135044)
F:  5814100----T:  5814300 	 St: c1170640 Sz: 64 	 Sm: 0 	 T: dma(0.135044)
F:  5814300----T:  5814500 	 St: c1170680 Sz: 128 	 Sm: 0 	 T: dma(0.135044)
F:  5814500----T:  5814700 	 St: c1a20300 Sz: 128 	 Sm: 0 	 T: dma(0.135044)
F:  5814700----T:  5814900 	 St: c1a20380 Sz: 64 	 Sm: 0 	 T: dma(0.135044)
F:  5814900----T:  5815100 	 St: c1a20000 Sz: 128 	 Sm: 0 	 T: dma(0.135044)
F:  5815100----T:  5815300 	 St: c1a20080 Sz: 32 	 Sm: 0 	 T: dma(0.135044)
F:  5815300----T:  5815500 	 St: c1a20100 Sz: 128 	 Sm: 0 	 T: dma(0.135044)
F:  5815500----T:  5815700 	 St: c1a20180 Sz: 32 	 Sm: 0 	 T: dma(0.135044)
F:  5815700----T:  5815900 	 St: c1a20200 Sz: 128 	 Sm: 0 	 T: dma(0.135044)
F:  5815900----T:  5816100 	 St: c1a20280 Sz: 64 	 Sm: 0 	 T: dma(0.135044)
F:  5816100----T:  5816300 	 St: c1a20080 Sz: 128 	 Sm: 0 	 T: dma(0.135044)
F:  5816300----T:  5816500 	 St: c1a20100 Sz: 32 	 Sm: 0 	 T: dma(0.135044)
F:  5816500----T:  5816700 	 St: c1a20180 Sz: 128 	 Sm: 0 	 T: dma(0.135044)
F:  5816700----T:  5816900 	 St: c1a20200 Sz: 64 	 Sm: 0 	 T: dma(0.135044)
F:  5816900----T:  5817100 	 St: c1172d80 Sz: 128 	 Sm: 0 	 T: dma(0.135044)
F:  5817100----T:  5817300 	 St: c1a20280 Sz: 128 	 Sm: 0 	 T: dma(0.135044)
F:  5817300----T:  5817500 	 St: c1172e00 Sz: 32 	 Sm: 0 	 T: dma(0.135044)
F:  5817500----T:  5817700 	 St: c1a20300 Sz: 64 	 Sm: 0 	 T: dma(0.135044)
F:  5817700----T:  5817900 	 St: c1171a60 Sz: 32 	 Sm: 0 	 T: dma(0.135044)
F:  5817900----T:  5818100 	 St: c1171a80 Sz: 128 	 Sm: 0 	 T: dma(0.135044)
F:  5818100----T:  5818300 	 St: c11717c0 Sz: 64 	 Sm: 0 	 T: dma(0.135044)
F:  5818300----T:  5818500 	 St: c1171800 Sz: 128 	 Sm: 0 	 T: dma(0.135044)
F:  5818500----T:  5818700 	 St: c1a20000 Sz: 32 	 Sm: 0 	 T: dma(0.135044)
F:  5818700----T:  5818900 	 St: c1170740 Sz: 64 	 Sm: 0 	 T: dma(0.135044)
F:  5818900----T:  5819100 	 St: c1170780 Sz: 128 	 Sm: 0 	 T: dma(0.135044)
F:  5819100----T:  5819300 	 St: c1170860 Sz: 32 	 Sm: 0 	 T: dma(0.135044)
F:  5819300----T:  5819500 	 St: c1170880 Sz: 128 	 Sm: 0 	 T: dma(0.135044)
F:  5819500----T:  5819700 	 St: c1170960 Sz: 32 	 Sm: 0 	 T: dma(0.135044)
F:  5819700----T:  5819900 	 St: c1170980 Sz: 128 	 Sm: 0 	 T: dma(0.135044)
F:  5819900----T:  5820100 	 St: c11719e0 Sz: 32 	 Sm: 0 	 T: dma(0.135044)
F:  5820100----T:  5820300 	 St: c1171a00 Sz: 128 	 Sm: 0 	 T: dma(0.135044)
F:  5820300----T:  5820500 	 St: c1171b00 Sz: 128 	 Sm: 0 	 T: dma(0.135044)
F:  5820500----T:  5820700 	 St: c1171b80 Sz: 32 	 Sm: 0 	 T: dma(0.135044)
F:  5820700----T:  5820900 	 St: c1a203c0 Sz: 64 	 Sm: 0 	 T: dma(0.135044)
F:  5820900----T:  5821100 	 St: c1a20400 Sz: 128 	 Sm: 0 	 T: dma(0.135044)
F:  5821100----T:  5821300 	 St: c11700e0 Sz: 32 	 Sm: 0 	 T: dma(0.135044)
F:  5821300----T:  5821500 	 St: c1170100 Sz: 128 	 Sm: 0 	 T: dma(0.135044)
F:  5821500----T:  5821700 	 St: c1172d00 Sz: 128 	 Sm: 0 	 T: dma(0.135044)
F:  5821700----T:  5821900 	 St: c1172d80 Sz: 32 	 Sm: 0 	 T: dma(0.135044)
F:  5821900----T:  5822100 	 St: c1172e00 Sz: 128 	 Sm: 0 	 T: dma(0.135044)
F:  5822100----T:  5822300 	 St: c1172e80 Sz: 64 	 Sm: 0 	 T: dma(0.135044)
F:  5822300----T:  5822500 	 St: c1190300 Sz: 128 	 Sm: 0 	 T: dma(0.135044)
F:  5822500----T:  5822700 	 St: c1190380 Sz: 64 	 Sm: 0 	 T: dma(0.135044)
F:  5822700----T:  5822900 	 St: c1190000 Sz: 128 	 Sm: 0 	 T: dma(0.135044)
F:  5822900----T:  5823100 	 St: c1190080 Sz: 32 	 Sm: 0 	 T: dma(0.135044)
F:  5823100----T:  5823300 	 St: c1190100 Sz: 128 	 Sm: 0 	 T: dma(0.135044)
F:  5823300----T:  5823500 	 St: c1190180 Sz: 32 	 Sm: 0 	 T: dma(0.135044)
F:  5823500----T:  5823700 	 St: c1190200 Sz: 128 	 Sm: 0 	 T: dma(0.135044)
F:  5823700----T:  5823900 	 St: c1190280 Sz: 64 	 Sm: 0 	 T: dma(0.135044)
F:  5823900----T:  5824100 	 St: c1190080 Sz: 128 	 Sm: 0 	 T: dma(0.135044)
F:  5824100----T:  5824300 	 St: c1190100 Sz: 32 	 Sm: 0 	 T: dma(0.135044)
F:  5824300----T:  5824500 	 St: c1190180 Sz: 128 	 Sm: 0 	 T: dma(0.135044)
F:  5824500----T:  5824700 	 St: c1190200 Sz: 64 	 Sm: 0 	 T: dma(0.135044)
F:  5824700----T:  5824900 	 St: c1190280 Sz: 128 	 Sm: 0 	 T: dma(0.135044)
F:  5824900----T:  5825100 	 St: c1190300 Sz: 64 	 Sm: 0 	 T: dma(0.135044)
F:  5825100----T:  5825300 	 St: c11903c0 Sz: 64 	 Sm: 0 	 T: dma(0.135044)
F:  5825300----T:  5825500 	 St: c1190400 Sz: 128 	 Sm: 0 	 T: dma(0.135044)
F:  5825500----T:  5828105 	 St: c19f0000 Sz: 4096 	 Sm: 0 	 T: memcpy_h2d(1.758947)
F:  5828105----T:  5836345 	 St: c19f1000 Sz: 61440 	 Sm: 0 	 T: memcpy_h2d(5.563808)
F:  5836345----T:  5838950 	 St: c1a00000 Sz: 4096 	 Sm: 0 	 T: memcpy_h2d(1.758947)
F:  5838950----T:  5854645 	 St: c1a01000 Sz: 126976 	 Sm: 0 	 T: memcpy_h2d(10.597569)
F:  5854645----T:  5857250 	 St: c1160000 Sz: 4096 	 Sm: 0 	 T: memcpy_h2d(1.758947)
F:  5857250----T:  5865490 	 St: c1161000 Sz: 61440 	 Sm: 0 	 T: memcpy_h2d(5.563808)
F:  5865490----T:  5868095 	 St: c1170000 Sz: 4096 	 Sm: 0 	 T: memcpy_h2d(1.758947)
F:  5868095----T:  5883790 	 St: c1171000 Sz: 126976 	 Sm: 0 	 T: memcpy_h2d(10.597569)
F:  5883790----T:  5886395 	 St: c1190000 Sz: 4096 	 Sm: 0 	 T: memcpy_h2d(1.758947)
F:  5886395----T:  5917118 	 St: c1191000 Sz: 258048 	 Sm: 0 	 T: memcpy_h2d(20.744766)
F:  5921250----T:  5924336 	 St: c1a20000 Sz: 12288 	 Sm: 0 	 T: memcpy_h2d(2.083727)
F:  5924336----T:  5954119 	 St: c1a23000 Sz: 249856 	 Sm: 0 	 T: memcpy_h2d(20.110062)
F:  5968509----T:  5971114 	 St: 0 Sz: 4096 	 Sm: 0 	 T: device_sync(1.758947)
F:  5968509----T:  5976749 	 St: 0 Sz: 61440 	 Sm: 0 	 T: device_sync(5.563808)
F:  5979354----T:  5981959 	 St: 0 Sz: 4096 	 Sm: 0 	 T: device_sync(1.758947)
F:  5979354----T:  5987594 	 St: 0 Sz: 61440 	 Sm: 0 	 T: device_sync(5.563808)
F:  5990199----T:  5992804 	 St: 0 Sz: 4096 	 Sm: 0 	 T: device_sync(1.758947)
F:  5990199----T:  6005894 	 St: 0 Sz: 126976 	 Sm: 0 	 T: device_sync(10.597569)
F:  6008499----T:  6011104 	 St: 0 Sz: 4096 	 Sm: 0 	 T: device_sync(1.758947)
F:  6008499----T:  6039222 	 St: 0 Sz: 258048 	 Sm: 0 	 T: device_sync(20.744766)
F:  6041827----T:  6044432 	 St: 0 Sz: 4096 	 Sm: 0 	 T: device_sync(1.758947)
F:  6041827----T:  6102663 	 St: 0 Sz: 520192 	 Sm: 0 	 T: device_sync(41.077652)
F:  6105268----T:  6107873 	 St: 0 Sz: 4096 	 Sm: 0 	 T: device_sync(1.758947)
F:  6105268----T:  6226357 	 St: 0 Sz: 1044480 	 Sm: 0 	 T: device_sync(81.761650)
F:  6228962----T:  6231567 	 St: 0 Sz: 4096 	 Sm: 0 	 T: device_sync(1.758947)
F:  6228962----T:  6237202 	 St: 0 Sz: 61440 	 Sm: 0 	 T: device_sync(5.563808)
F:  6239807----T:  6242412 	 St: 0 Sz: 4096 	 Sm: 0 	 T: device_sync(1.758947)
F:  6239807----T:  6248047 	 St: 0 Sz: 61440 	 Sm: 0 	 T: device_sync(5.563808)
F:  6250652----T:  6253257 	 St: 0 Sz: 4096 	 Sm: 0 	 T: device_sync(1.758947)
F:  6250652----T:  6266347 	 St: 0 Sz: 126976 	 Sm: 0 	 T: device_sync(10.597569)
F:  6268952----T:  6271557 	 St: 0 Sz: 4096 	 Sm: 0 	 T: device_sync(1.758947)
F:  6268952----T:  6299675 	 St: 0 Sz: 258048 	 Sm: 0 	 T: device_sync(20.744766)
F:  6302280----T:  6304885 	 St: 0 Sz: 4096 	 Sm: 0 	 T: device_sync(1.758947)
F:  6302280----T:  6363116 	 St: 0 Sz: 520192 	 Sm: 0 	 T: device_sync(41.077652)
F:  6365721----T:  6368326 	 St: 0 Sz: 4096 	 Sm: 0 	 T: device_sync(1.758947)
F:  6365721----T:  6486810 	 St: 0 Sz: 1044480 	 Sm: 0 	 T: device_sync(81.761650)
F:  6489415----T:  6492020 	 St: 0 Sz: 4096 	 Sm: 0 	 T: device_sync(1.758947)
F:  6489415----T:  6497655 	 St: 0 Sz: 61440 	 Sm: 0 	 T: device_sync(5.563808)
F:  6500260----T:  6502865 	 St: 0 Sz: 4096 	 Sm: 0 	 T: device_sync(1.758947)
F:  6500260----T:  6508500 	 St: 0 Sz: 61440 	 Sm: 0 	 T: device_sync(5.563808)
F:  6511105----T:  6513710 	 St: 0 Sz: 4096 	 Sm: 0 	 T: device_sync(1.758947)
F:  6511105----T:  6526800 	 St: 0 Sz: 126976 	 Sm: 0 	 T: device_sync(10.597569)
F:  6529405----T:  6532010 	 St: 0 Sz: 4096 	 Sm: 0 	 T: device_sync(1.758947)
F:  6529405----T:  6560128 	 St: 0 Sz: 258048 	 Sm: 0 	 T: device_sync(20.744766)
F:  6562733----T:  6565338 	 St: 0 Sz: 4096 	 Sm: 0 	 T: device_sync(1.758947)
F:  6562733----T:  6623569 	 St: 0 Sz: 520192 	 Sm: 0 	 T: device_sync(41.077652)
F:  6626174----T:  6628779 	 St: 0 Sz: 4096 	 Sm: 0 	 T: device_sync(1.758947)
F:  6626174----T:  6747263 	 St: 0 Sz: 1044480 	 Sm: 0 	 T: device_sync(81.761650)
F:  6749868----T:  6752473 	 St: 0 Sz: 4096 	 Sm: 0 	 T: device_sync(1.758947)
F:  6749868----T:  6758108 	 St: 0 Sz: 61440 	 Sm: 0 	 T: device_sync(5.563808)
F:  6760713----T:  6763318 	 St: 0 Sz: 4096 	 Sm: 0 	 T: device_sync(1.758947)
F:  6760713----T:  6768953 	 St: 0 Sz: 61440 	 Sm: 0 	 T: device_sync(5.563808)
F:  6771558----T:  6774163 	 St: 0 Sz: 4096 	 Sm: 0 	 T: device_sync(1.758947)
F:  6771558----T:  6787253 	 St: 0 Sz: 126976 	 Sm: 0 	 T: device_sync(10.597569)
F:  6789858----T:  6792463 	 St: 0 Sz: 4096 	 Sm: 0 	 T: device_sync(1.758947)
F:  6789858----T:  6820581 	 St: 0 Sz: 258048 	 Sm: 0 	 T: device_sync(20.744766)
F:  6823186----T:  6825791 	 St: 0 Sz: 4096 	 Sm: 0 	 T: device_sync(1.758947)
F:  6823186----T:  6884022 	 St: 0 Sz: 520192 	 Sm: 0 	 T: device_sync(41.077652)
F:  6886627----T:  6889232 	 St: 0 Sz: 4096 	 Sm: 0 	 T: device_sync(1.758947)
F:  6886627----T:  7007716 	 St: 0 Sz: 1044480 	 Sm: 0 	 T: device_sync(81.761650)
F:  7010321----T:  7012926 	 St: 0 Sz: 4096 	 Sm: 0 	 T: device_sync(1.758947)
F:  7010321----T:  7018561 	 St: 0 Sz: 61440 	 Sm: 0 	 T: device_sync(5.563808)
F:  7021166----T:  7023771 	 St: 0 Sz: 4096 	 Sm: 0 	 T: device_sync(1.758947)
F:  7021166----T:  7029406 	 St: 0 Sz: 61440 	 Sm: 0 	 T: device_sync(5.563808)
F:  7032011----T:  7034616 	 St: 0 Sz: 4096 	 Sm: 0 	 T: device_sync(1.758947)
F:  7032011----T:  7047706 	 St: 0 Sz: 126976 	 Sm: 0 	 T: device_sync(10.597569)
F:  7050311----T:  7052916 	 St: 0 Sz: 4096 	 Sm: 0 	 T: device_sync(1.758947)
F:  7050311----T:  7081034 	 St: 0 Sz: 258048 	 Sm: 0 	 T: device_sync(20.744766)
F:  7083639----T:  7086244 	 St: 0 Sz: 4096 	 Sm: 0 	 T: device_sync(1.758947)
F:  7083639----T:  7144475 	 St: 0 Sz: 520192 	 Sm: 0 	 T: device_sync(41.077652)
F:  7147080----T:  7149685 	 St: 0 Sz: 4096 	 Sm: 0 	 T: device_sync(1.758947)
F:  7147080----T:  7268169 	 St: 0 Sz: 1044480 	 Sm: 0 	 T: device_sync(81.761650)
F:  7270774----T:  7273379 	 St: 0 Sz: 4096 	 Sm: 0 	 T: device_sync(1.758947)
F:  7270774----T:  7279014 	 St: 0 Sz: 61440 	 Sm: 0 	 T: device_sync(5.563808)
F:  7281619----T:  7284224 	 St: 0 Sz: 4096 	 Sm: 0 	 T: device_sync(1.758947)
F:  7281619----T:  7289859 	 St: 0 Sz: 61440 	 Sm: 0 	 T: device_sync(5.563808)
F:  7292464----T:  7295069 	 St: 0 Sz: 4096 	 Sm: 0 	 T: device_sync(1.758947)
F:  7292464----T:  7308159 	 St: 0 Sz: 126976 	 Sm: 0 	 T: device_sync(10.597569)
F:  7310764----T:  7313369 	 St: 0 Sz: 4096 	 Sm: 0 	 T: device_sync(1.758947)
F:  7310764----T:  7341487 	 St: 0 Sz: 258048 	 Sm: 0 	 T: device_sync(20.744766)
F:  7344092----T:  7346697 	 St: 0 Sz: 4096 	 Sm: 0 	 T: device_sync(1.758947)
F:  7344092----T:  7404928 	 St: 0 Sz: 520192 	 Sm: 0 	 T: device_sync(41.077652)
F:  7407533----T:  7410138 	 St: 0 Sz: 4096 	 Sm: 0 	 T: device_sync(1.758947)
F:  7407533----T:  7528622 	 St: 0 Sz: 1044480 	 Sm: 0 	 T: device_sync(81.761650)
F:  7531227----T:  7533832 	 St: 0 Sz: 4096 	 Sm: 0 	 T: device_sync(1.758947)
F:  7531227----T:  7539467 	 St: 0 Sz: 61440 	 Sm: 0 	 T: device_sync(5.563808)
F:  7542072----T:  7544677 	 St: 0 Sz: 4096 	 Sm: 0 	 T: device_sync(1.758947)
F:  7542072----T:  7550312 	 St: 0 Sz: 61440 	 Sm: 0 	 T: device_sync(5.563808)
F:  7552917----T:  7555522 	 St: 0 Sz: 4096 	 Sm: 0 	 T: device_sync(1.758947)
F:  7552917----T:  7568612 	 St: 0 Sz: 126976 	 Sm: 0 	 T: device_sync(10.597569)
F:  7571217----T:  7573822 	 St: 0 Sz: 4096 	 Sm: 0 	 T: device_sync(1.758947)
F:  7571217----T:  7601940 	 St: 0 Sz: 258048 	 Sm: 0 	 T: device_sync(20.744766)
F:  7604545----T:  7607150 	 St: 0 Sz: 4096 	 Sm: 0 	 T: device_sync(1.758947)
F:  7604545----T:  7665381 	 St: 0 Sz: 520192 	 Sm: 0 	 T: device_sync(41.077652)
F:  7667986----T:  7670591 	 St: 0 Sz: 4096 	 Sm: 0 	 T: device_sync(1.758947)
F:  7667986----T:  7789075 	 St: 0 Sz: 1044480 	 Sm: 0 	 T: device_sync(81.761650)
F:  7791680----T:  7794285 	 St: 0 Sz: 4096 	 Sm: 0 	 T: device_sync(1.758947)
F:  7791680----T:  7799920 	 St: 0 Sz: 61440 	 Sm: 0 	 T: device_sync(5.563808)
F:  7802525----T:  7805130 	 St: 0 Sz: 4096 	 Sm: 0 	 T: device_sync(1.758947)
F:  7802525----T:  7810765 	 St: 0 Sz: 61440 	 Sm: 0 	 T: device_sync(5.563808)
F:  7813370----T:  7815975 	 St: 0 Sz: 4096 	 Sm: 0 	 T: device_sync(1.758947)
F:  7813370----T:  7829065 	 St: 0 Sz: 126976 	 Sm: 0 	 T: device_sync(10.597569)
F:  7831670----T:  7834275 	 St: 0 Sz: 4096 	 Sm: 0 	 T: device_sync(1.758947)
F:  7831670----T:  7862393 	 St: 0 Sz: 258048 	 Sm: 0 	 T: device_sync(20.744766)
F:  7864998----T:  7867603 	 St: 0 Sz: 4096 	 Sm: 0 	 T: device_sync(1.758947)
F:  7864998----T:  7925834 	 St: 0 Sz: 520192 	 Sm: 0 	 T: device_sync(41.077652)
F:  7928439----T:  7931044 	 St: 0 Sz: 4096 	 Sm: 0 	 T: device_sync(1.758947)
F:  7928439----T:  8049528 	 St: 0 Sz: 1044480 	 Sm: 0 	 T: device_sync(81.761650)
F:  8052133----T:  8054738 	 St: 0 Sz: 4096 	 Sm: 0 	 T: device_sync(1.758947)
F:  8052133----T:  8060373 	 St: 0 Sz: 61440 	 Sm: 0 	 T: device_sync(5.563808)
F:  8062978----T:  8065583 	 St: 0 Sz: 4096 	 Sm: 0 	 T: device_sync(1.758947)
F:  8062978----T:  8071218 	 St: 0 Sz: 61440 	 Sm: 0 	 T: device_sync(5.563808)
F:  8073823----T:  8076428 	 St: 0 Sz: 4096 	 Sm: 0 	 T: device_sync(1.758947)
F:  8073823----T:  8089518 	 St: 0 Sz: 126976 	 Sm: 0 	 T: device_sync(10.597569)
F:  8092123----T:  8094728 	 St: 0 Sz: 4096 	 Sm: 0 	 T: device_sync(1.758947)
F:  8092123----T:  8122846 	 St: 0 Sz: 258048 	 Sm: 0 	 T: device_sync(20.744766)
F:  8125451----T:  8128056 	 St: 0 Sz: 4096 	 Sm: 0 	 T: device_sync(1.758947)
F:  8125451----T:  8186287 	 St: 0 Sz: 520192 	 Sm: 0 	 T: device_sync(41.077652)
Tot_prefetch_time: 0(cycle), 0.000000(us)
Tot_kernel_exec_time: 4345638(cycle), 2934.259277(us)
Tot_kernel_exec_time_and_fault_time: 10943493(cycle), 7389.259277(us)
Tot_memcpy_h2d_time: 3488470(cycle), 2355.482666(us)
Tot_memcpy_d2h_time: 0(cycle), 0.000000(us)
Tot_memcpy_time: 3488470(cycle), 2355.482666(us)
Tot_devicesync_time: 3398954(cycle), 2295.039795(us)
Tot_writeback_time: 0(cycle), 0.000000(us)
Tot_dma_time: 192600(cycle), 130.047272(us)
Tot_memcpy_d2h_sync_wb_time: 3398954(cycle), 2295.039795(us)
GPGPU-Sim: *** exit detected ***
