

        *** GPGPU-Sim Simulator Version 3.2.2  [build gpgpu-sim_git-commit-c8c883f82f149f8a735f810bff4b4328d99c95c2_modified_0] ***


GPGPU-Sim PTX: simulation mode 0 (can change with PTX_SIM_MODE_FUNC environment variable:
               1=functional simulation only, 0=detailed performance simulator)
GPGPU-Sim: Configuration options:

-network_mode                           1 # Interconnection network mode
-inter_config_file   config_fermi_islip.icnt # Interconnection network config file
-gpgpu_ptx_use_cuobjdump                    1 # Use cuobjdump to extract ptx and sass from binaries
-gpgpu_experimental_lib_support                    0 # Try to extract code from cuda libraries [Broken because of unknown cudaGetExportTable]
-gpgpu_ptx_convert_to_ptxplus                    0 # Convert SASS (native ISA) to ptxplus and run ptxplus
-gpgpu_ptx_force_max_capability                   20 # Force maximum compute capability
-gpgpu_ptx_inst_debug_to_file                    0 # Dump executed instructions' debug information to file
-gpgpu_ptx_inst_debug_file       inst_debug.txt # Executed instructions' debug output file
-gpgpu_ptx_inst_debug_thread_uid                    1 # Thread UID for executed instructions' debug output
-gpgpu_simd_model                       1 # 1 = post-dominator
-gpgpu_shader_core_pipeline              2048:32 # shader core pipeline config, i.e., {<nthread>:<warpsize>}
-gpgpu_tex_cache:l1  16:128:24,L:R:m:N:L,F:128:4,128:2 # per-shader L1 texture cache  (READ-ONLY) config  {<nsets>:<bsize>:<assoc>,<rep>:<wr>:<alloc>:<wr_alloc>,<mshr>:<N>:<merge>,<mq>:<rf>}
-gpgpu_const_cache:l1 128:64:2,L:R:f:N:L,A:2:64,4 # per-shader L1 constant memory cache  (READ-ONLY) config  {<nsets>:<bsize>:<assoc>,<rep>:<wr>:<alloc>:<wr_alloc>,<mshr>:<N>:<merge>,<mq>} 
-gpgpu_cache:il1     8:128:4,L:R:f:N:L,A:2:48,4 # shader L1 instruction cache config  {<nsets>:<bsize>:<assoc>,<rep>:<wr>:<alloc>:<wr_alloc>,<mshr>:<N>:<merge>,<mq>} 
-gpgpu_cache:dl1     64:128:6,L:L:m:N:H,A:128:8,8 # per-shader L1 data cache config  {<nsets>:<bsize>:<assoc>,<rep>:<wr>:<alloc>:<wr_alloc>,<mshr>:<N>:<merge>,<mq> | none}
-gpgpu_cache:dl1PrefL1                 none # per-shader L1 data cache config  {<nsets>:<bsize>:<assoc>,<rep>:<wr>:<alloc>:<wr_alloc>,<mshr>:<N>:<merge>,<mq> | none}
-gpgpu_cache:dl1PrefShared                 none # per-shader L1 data cache config  {<nsets>:<bsize>:<assoc>,<rep>:<wr>:<alloc>:<wr_alloc>,<mshr>:<N>:<merge>,<mq> | none}
-gmem_skip_L1D                          1 # global memory access skip L1D cache (implements -Xptxas -dlcm=cg, default=no skip)
-gpgpu_perfect_mem                      0 # enable perfect memory mode (no cache miss)
-n_regfile_gating_group                    4 # group of lanes that should be read/written together)
-gpgpu_clock_gated_reg_file                    0 # enable clock gated reg file for power calculations
-gpgpu_clock_gated_lanes                    0 # enable clock gated lanes for power calculations
-gpgpu_shader_registers                65536 # Number of registers per shader core. Limits number of concurrent CTAs. (default 8192)
-gpgpu_shader_cta                      32 # Maximum number of concurrent CTAs in shader (default 8)
-gpgpu_num_cta_barriers                   16 # Maximum number of named barriers per CTA (default 16)
-gpgpu_n_clusters                      28 # number of processing clusters
-gpgpu_n_cores_per_cluster                    1 # number of simd cores per cluster
-gpgpu_n_cluster_ejection_buffer_size                    8 # number of packets in ejection buffer
-gpgpu_n_ldst_response_buffer_size                    2 # number of response packets in ld/st unit ejection buffer
-gpgpu_shmem_size                   16384 # Size of shared memory per shader core (default 16kB)
-gpgpu_shmem_size                   98304 # Size of shared memory per shader core (default 16kB)
-gpgpu_shmem_size_PrefL1                16384 # Size of shared memory per shader core (default 16kB)
-gpgpu_shmem_size_PrefShared                16384 # Size of shared memory per shader core (default 16kB)
-gpgpu_shmem_num_banks                   32 # Number of banks in the shared memory in each shader core (default 16)
-gpgpu_shmem_limited_broadcast                    0 # Limit shared memory to do one broadcast per cycle (default on)
-gpgpu_shmem_warp_parts                    1 # Number of portions a warp is divided into for shared memory bank conflict check 
-gpgpu_warpdistro_shader                   -1 # Specify which shader core to collect the warp size distribution from
-gpgpu_warp_issue_shader                    0 # Specify which shader core to collect the warp issue distribution from
-gpgpu_local_mem_map                    1 # Mapping from local memory space address to simulated GPU physical address space (default = enabled)
-gpgpu_num_reg_banks                   32 # Number of register banks (default = 8)
-gpgpu_reg_bank_use_warp_id                    0 # Use warp ID in mapping registers to banks (default = off)
-gpgpu_operand_collector_num_units_sp                   20 # number of collector units (default = 4)
-gpgpu_operand_collector_num_units_sfu                    4 # number of collector units (default = 4)
-gpgpu_operand_collector_num_units_mem                    8 # number of collector units (default = 2)
-gpgpu_operand_collector_num_units_gen                    0 # number of collector units (default = 0)
-gpgpu_operand_collector_num_in_ports_sp                    4 # number of collector unit in ports (default = 1)
-gpgpu_operand_collector_num_in_ports_sfu                    1 # number of collector unit in ports (default = 1)
-gpgpu_operand_collector_num_in_ports_mem                    1 # number of collector unit in ports (default = 1)
-gpgpu_operand_collector_num_in_ports_gen                    0 # number of collector unit in ports (default = 0)
-gpgpu_operand_collector_num_out_ports_sp                    4 # number of collector unit in ports (default = 1)
-gpgpu_operand_collector_num_out_ports_sfu                    1 # number of collector unit in ports (default = 1)
-gpgpu_operand_collector_num_out_ports_mem                    1 # number of collector unit in ports (default = 1)
-gpgpu_operand_collector_num_out_ports_gen                    0 # number of collector unit in ports (default = 0)
-gpgpu_coalesce_arch                   13 # Coalescing arch (default = 13, anything else is off for now)
-gpgpu_num_sched_per_core                    2 # Number of warp schedulers per core
-gpgpu_max_insn_issue_per_warp                    2 # Max number of instructions that can be issued per warp in one cycle by scheduler
-gpgpu_simt_core_sim_order                    1 # Select the simulation order of cores in a cluster (0=Fix, 1=Round-Robin)
-gpgpu_pipeline_widths        4,1,1,4,1,1,6 # Pipeline widths ID_OC_SP,ID_OC_SFU,ID_OC_MEM,OC_EX_SP,OC_EX_SFU,OC_EX_MEM,EX_WB
-gpgpu_num_sp_units                     4 # Number of SP units (default=1)
-gpgpu_num_sfu_units                    1 # Number of SF units (default=1)
-gpgpu_num_mem_units                    1 # Number if ldst units (default=1) WARNING: not hooked up to anything
-gpgpu_scheduler                      gto # Scheduler configuration: < lrr | gto | two_level_active > If two_level_active:<num_active_warps>:<inner_prioritization>:<outer_prioritization>For complete list of prioritization values see shader.h enum scheduler_prioritization_typeDefault: gto
-gpgpu_concurrent_kernel_sm                    0 # Support concurrent kernels on a SM (default = disabled)
-tlb_size                            4096 # Number of tlb entries per SM.
-gpgpu_dram_scheduler                    1 # 0 = fifo, 1 = FR-FCFS (defaul)
-gpgpu_dram_partition_queues              8:8:8:8 # i2$:$2d:d2$:$2i
-l2_ideal                               0 # Use a ideal L2 cache that always hit
-gpgpu_cache:dl2     64:128:16,L:B:m:W:L,A:1024:1024,4:0,32 # unified banked L2 data cache config  {<nsets>:<bsize>:<assoc>,<rep>:<wr>:<alloc>:<wr_alloc>,<mshr>:<N>:<merge>,<mq>}
-gpgpu_cache:dl2_texture_only                    0 # L2 cache used for texture only
-gpgpu_n_mem                           11 # number of memory modules (e.g. memory controllers) in gpu
-gpgpu_n_sub_partition_per_mchannel                    2 # number of memory subpartition in each memory module
-gpgpu_n_mem_per_ctrlr                    1 # number of memory chips per memory controller
-gpgpu_memlatency_stat                   14 # track and display latency statistics 0x2 enables MC, 0x4 enables queue logs
-gpgpu_frfcfs_dram_sched_queue_size                   64 # 0 = unlimited (default); # entries per chip
-gpgpu_dram_return_queue_size                  116 # 0 = unlimited (default); # entries per chip
-gpgpu_dram_buswidth                    4 # default = 4 bytes (8 bytes per cycle at DDR)
-gpgpu_dram_burst_length                    8 # Burst length of each DRAM request (default = 4 data bus cycle)
-dram_data_command_freq_ratio                    4 # Frequency ratio between DRAM data bus and command bus (default = 2 times, i.e. DDR)
-gpgpu_dram_timing_opt nbk=16:CCD=2:RRD=6:RCD=12:RAS=28:RP=12:RC=40: CL=12:WL=4:CDLR=5:WR=12:nbkgrp=1:CCDL=0:RTPL=0 # DRAM timing parameters = {nbk:tCCD:tRRD:tRCD:tRAS:tRP:tRC:CL:WL:tCDLR:tWR:nbkgrp:tCCDL:tRTPL}
-rop_latency                          120 # ROP queue latency (default 85)
-dram_latency                         100 # DRAM latency (default 30)
-gpgpu_mem_addr_mapping dramid@8;00000000.00000000.00000000.00000000.0000RRRR.RRRRRRRR.RBBBCCCC.BCCSSSSS # mapping memory address to dram model {dramid@<start bit>;<memory address map>}
-gpgpu_mem_addr_test                    0 # run sweep test to check address mapping for aliased address
-gpgpu_mem_address_mask                    1 # 0 = old addressing mask, 1 = new addressing mask, 2 = new add. mask + flipped bank sel and chip sel bits
-gpuwattch_xml_file  gpuwattch_geforcegtx1080ti.xml # GPUWattch XML file
-power_simulation_enabled                    1 # Turn on power simulator (1=On, 0=Off)
-power_per_cycle_dump                    0 # Dump detailed power output each cycle
-power_trace_enabled                    0 # produce a file for the power trace (1=On, 0=Off)
-power_trace_zlevel                     6 # Compression level of the power trace output log (0=no comp, 9=highest)
-steady_power_levels_enabled                    0 # produce a file for the steady power levels (1=On, 0=Off)
-steady_state_definition                  8:4 # allowed deviation:number of samples
-gpgpu_max_cycle                        0 # terminates gpu simulation early (0 = no limit)
-gpgpu_max_insn                         0 # terminates gpu simulation early (0 = no limit)
-gpgpu_max_cta                          0 # terminates gpu simulation early (0 = no limit)
-gpgpu_runtime_stat                   500 # display runtime statistics such as dram utilization {<freq>:<flag>}
-liveness_message_freq                    1 # Minimum number of seconds between simulation liveness messages (0 = always print)
-gpgpu_flush_l1_cache                    0 # Flush L1 cache at the end of each kernel call
-gpgpu_flush_l2_cache                    0 # Flush L2 cache at the end of each kernel call
-gpgpu_deadlock_detect                    0 # Stop the simulation at deadlock (1=on (default), 0=off)
-gpgpu_ptx_instruction_classification                    0 # if enabled will classify ptx instruction types per kernel (Max 255 kernels now)
-gpgpu_ptx_sim_mode                     0 # Select between Performance (default) or Functional simulation (1)
-gpgpu_clock_domains 1481.0:2962.0:1481.0:2750.0 # Clock Domain Frequencies in MhZ {<Core Clock>:<ICNT Clock>:<L2 Clock>:<DRAM Clock>}
-gpgpu_max_concurrent_kernel                    8 # maximum kernels that can run concurrently on GPU
-gpgpu_cflog_interval                    0 # Interval between each snapshot in control flow logger
-visualizer_enabled                     0 # Turn on visualizer output (1=On, 0=Off)
-visualizer_outputfile                 NULL # Specifies the output log file for visualizer
-visualizer_zlevel                      6 # Compression level of the visualizer output log (0=no comp, 9=highest)
-trace_enabled                          0 # Turn on traces
-trace_components                    none # comma seperated list of traces to enable. Complete list found in trace_streams.tup. Default none
-trace_sampling_core                    0 # The core which is printed using CORE_DPRINTF. Default 0
-trace_sampling_memory_partition                   -1 # The memory partition which is printed using MEMPART_DPRINTF. Default -1 (i.e. all)
-gddr_size                            1GB # Size of GDDR in MB/GB.(GLOBAL_HEAP_START, GLOBAL_HEAP_START + gddr_size) would be used for unmanged memory, (GLOBAL_HEAP_START + gddr_size, GLOBAL_HEAP_START + gddr_size*2) would be used for managed memory. 
-page_table_walk_latency                  100 # Average page table walk latency (in core cycle).
-eviction_policy                        0 # Select page eviction policy
-invalidate_clean                       0 # Should directly invalidate clean pages
-reserve_accessed_page_percent                    0 # Percentage of accessed pages reserved from eviction in hope that they will be accessed in next iteration.
-percentage_of_free_page_buffer                    0 # Percentage of free page buffer to trigger the page eviction.
-page_size                            4KB # GDDR page size, only 4KB/2MB avaliable.
-pcie_bandwidth                  16.0GB/s # PCI-e bandwidth per direction, in GB/s.
-enable_dma                             2 # Enable direct access to CPU memory
-multiply_dma_penalty                    2 # Oversubscription Multiplicative Penalty Factor for Adaptive DMA
-migrate_threshold                     32 # Access counter threshold for migrating the page from cpu to gpu
-sim_prof_enable                        1 # Enable gpgpu-sim profiler
-hardware_prefetch                      1 # Select gpgpu-sim hardware prefetcher
-hwprefetch_oversub                     1 # Select gpgpu-sim hardware prefetcher under over-subscription
-page_fault_latency                 66645 # Average fault latency (in core cycle).
-enable_accurate_simulation                    0 # Enable page fault functional simulation.
-enable_ptx_file_line_stats                    1 # Turn on PTX source line statistic profiling. (1 = On)
-ptx_line_stats_filename gpgpu_inst_stats.txt # Output file for PTX source line statistics.
-gpgpu_kernel_launch_latency               222150 # Kernel launch latency in cycles. Default: 0
-gpgpu_cdp_enabled                      0 # Turn on CDP
-save_embedded_ptx                      0 # saves ptx files embedded in binary as <n>.ptx
-keep                                   0 # keep intermediate files created by GPGPU-Sim when interfacing with external programs
-gpgpu_ptx_save_converted_ptxplus                    0 # Saved converted ptxplus to a file
-ptx_opcode_latency_int         4,13,4,5,145 # Opcode latencies for integers <ADD,MAX,MUL,MAD,DIV>Default 1,1,19,25,145
-ptx_opcode_latency_fp          4,13,4,5,39 # Opcode latencies for single precision floating points <ADD,MAX,MUL,MAD,DIV>Default 1,1,1,1,30
-ptx_opcode_latency_dp         8,19,8,8,330 # Opcode latencies for double precision floating points <ADD,MAX,MUL,MAD,DIV>Default 8,8,8,8,335
-ptx_opcode_initiation_int            1,2,2,2,8 # Opcode initiation intervals for integers <ADD,MAX,MUL,MAD,DIV>Default 1,1,4,4,32
-ptx_opcode_initiation_fp            1,2,1,1,4 # Opcode initiation intervals for single precision floating points <ADD,MAX,MUL,MAD,DIV>Default 1,1,1,1,5
-ptx_opcode_initiation_dp          1,2,1,1,130 # Opcode initiation intervals for double precision floating points <ADD,MAX,MUL,MAD,DIV>Default 8,8,8,8,130
-cdp_latency         7200,8000,100,12000,1600 # CDP API latency <cudaStreamCreateWithFlags, cudaGetParameterBufferV2_init_perWarp, cudaGetParameterBufferV2_perKernel, cudaLaunchDeviceV2_init_perWarp, cudaLaunchDevicV2_perKernel>Default 7200,8000,100,12000,1600
DRAM Timing Options:
nbk                                    16 # number of banks
CCD                                     2 # column to column delay
RRD                                     6 # minimal delay between activation of rows in different banks
RCD                                    12 # row to column delay
RAS                                    28 # time needed to activate row
RP                                     12 # time needed to precharge (deactivate) row
RC                                     40 # row cycle time
CDLR                                    5 # switching from write to read (changes tWTR)
WR                                     12 # last data-in to row precharge
CL                                     12 # CAS latency
WL                                      4 # Write latency
nbkgrp                                  1 # number of bank groups
CCDL                                    0 # column to column delay between accesses to different bank groups
RTPL                                    0 # read to precharge delay between accesses to different bank groups
Total number of memory sub partition = 22
addr_dec_mask[CHIP]  = 0000000000000000 	high:64 low:0
addr_dec_mask[BK]    = 0000000000007080 	high:15 low:7
addr_dec_mask[ROW]   = 000000000fff8000 	high:28 low:15
addr_dec_mask[COL]   = 0000000000000f7f 	high:12 low:0
addr_dec_mask[BURST] = 000000000000001f 	high:5 low:0
sub_partition_id_mask = 0000000000000080
GPGPU-Sim uArch: clock freqs: 1481000000.000000:2962000000.000000:1481000000.000000:2750000000.000000
GPGPU-Sim uArch: clock periods: 0.00000000067521944632:0.00000000033760972316:0.00000000067521944632:0.00000000036363636364
*** Initializing Memory Statistics ***
GPGPU-Sim uArch: interconnect node map (shaderID+MemID to icntID)
GPGPU-Sim uArch: Memory nodes ID start from index: 28
GPGPU-Sim uArch:    0   1   2   3   4   5   6
GPGPU-Sim uArch:    7   8   9  10  11  12  13
GPGPU-Sim uArch:   14  15  16  17  18  19  20
GPGPU-Sim uArch:   21  22  23  24  25  26  27
GPGPU-Sim uArch:   28  29  30  31  32  33  34
GPGPU-Sim uArch:   35  36  37  38  39  40  41
GPGPU-Sim uArch:   42  43  44  45  46  47  48
GPGPU-Sim uArch:   49
GPGPU-Sim uArch: interconnect node reverse map (icntID to shaderID+MemID)
GPGPU-Sim uArch: Memory nodes start from ID: 28
GPGPU-Sim uArch:    0   1   2   3   4   5   6
GPGPU-Sim uArch:    7   8   9  10  11  12  13
GPGPU-Sim uArch:   14  15  16  17  18  19  20
GPGPU-Sim uArch:   21  22  23  24  25  26  27
GPGPU-Sim uArch:   28  29  30  31  32  33  34
GPGPU-Sim uArch:   35  36  37  38  39  40  41
GPGPU-Sim uArch:   42  43  44  45  46  47  48
GPGPU-Sim uArch:   49
cf5745cf1abd2a064bd21dd8114faea6  /root/gpgpu-sim_UVMSmart/benchmarks/Managed/FDTD-2D/main
GPGPU-Sim uArch: performance model initialization complete.
GPGPU-Sim PTX: __cudaRegisterFatBinary, fat_cubin_handle = 1, filename=default
self exe links to: /root/gpgpu-sim_UVMSmart/benchmarks/Managed/FDTD-2D/main
Running md5sum using "md5sum /root/gpgpu-sim_UVMSmart/benchmarks/Managed/FDTD-2D/main "
Parsing file _cuobjdump_complete_output_MXuDxc
######### cuobjdump parser ########
## Adding new section ELF
Adding arch: sm_20
Adding identifier: default
## Adding new section ELF
Adding arch: sm_20
Adding identifier: default
## Adding new section PTX
Adding ptx filename: _cuobjdump_1.ptx
Adding arch: sm_20
Adding identifier: default
Done parsing!!!
GPGPU-Sim PTX: __cudaRegisterFunction _Z17fdtd_step3_kernelPfS_S_i : hostFun 0x0x401766, fat_cubin_handle = 1
GPGPU-Sim PTX: instruction assembly for function '_Z17fdtd_step1_kernelPfS_S_S_i'...   done.
GPGPU-Sim PTX: finding reconvergence points for '_Z17fdtd_step1_kernelPfS_S_S_i'...
GPGPU-Sim PTX: Finding dominators for '_Z17fdtd_step1_kernelPfS_S_S_i'...
GPGPU-Sim PTX: Finding immediate dominators for '_Z17fdtd_step1_kernelPfS_S_S_i'...
GPGPU-Sim PTX: Finding postdominators for '_Z17fdtd_step1_kernelPfS_S_S_i'...
GPGPU-Sim PTX: Finding immediate postdominators for '_Z17fdtd_step1_kernelPfS_S_S_i'...
GPGPU-Sim PTX: pre-decoding instructions for '_Z17fdtd_step1_kernelPfS_S_S_i'...
GPGPU-Sim PTX: reconvergence points for _Z17fdtd_step1_kernelPfS_S_S_i...
GPGPU-Sim PTX:  1 (potential) branch divergence @  PC=0x080 (_1.ptx:44) @!%p3 bra BB0_4;
GPGPU-Sim PTX:    immediate post dominator      @  PC=0x150 (_1.ptx:77) ret;
GPGPU-Sim PTX:  2 (potential) branch divergence @  PC=0x088 (_1.ptx:45) bra.uni BB0_1;
GPGPU-Sim PTX:    immediate post dominator      @  PC=0x090 (_1.ptx:48) setp.eq.s32%p4, %r2, 0;
GPGPU-Sim PTX:  3 (potential) branch divergence @  PC=0x098 (_1.ptx:49) @%p4 bra BB0_3;
GPGPU-Sim PTX:    immediate post dominator      @  PC=0x150 (_1.ptx:77) ret;
GPGPU-Sim PTX:  4 (potential) branch divergence @  PC=0x110 (_1.ptx:65) bra.uni BB0_4;
GPGPU-Sim PTX:    immediate post dominator      @  PC=0x150 (_1.ptx:77) ret;
GPGPU-Sim PTX: ... end of reconvergence points for _Z17fdtd_step1_kernelPfS_S_S_i
GPGPU-Sim PTX: ... done pre-decoding instructions for '_Z17fdtd_step1_kernelPfS_S_S_i'.
GPGPU-Sim PTX: instruction assembly for function '_Z17fdtd_step2_kernelPfS_S_i'...   done.
GPGPU-Sim PTX: finding reconvergence points for '_Z17fdtd_step2_kernelPfS_S_i'...
GPGPU-Sim PTX: Finding dominators for '_Z17fdtd_step2_kernelPfS_S_i'...
GPGPU-Sim PTX: Finding immediate dominators for '_Z17fdtd_step2_kernelPfS_S_i'...
GPGPU-Sim PTX: Finding postdominators for '_Z17fdtd_step2_kernelPfS_S_i'...
GPGPU-Sim PTX: Finding immediate postdominators for '_Z17fdtd_step2_kernelPfS_S_i'...
GPGPU-Sim PTX: pre-decoding instructions for '_Z17fdtd_step2_kernelPfS_S_i'...
GPGPU-Sim PTX: reconvergence points for _Z17fdtd_step2_kernelPfS_S_i...
GPGPU-Sim PTX:  1 (potential) branch divergence @  PC=0x1d0 (_1.ptx:109) @!%p5 bra BB1_2;
GPGPU-Sim PTX:    immediate post dominator      @  PC=0x268 (_1.ptx:132) ret;
GPGPU-Sim PTX:  2 (potential) branch divergence @  PC=0x1d8 (_1.ptx:110) bra.uni BB1_1;
GPGPU-Sim PTX:    immediate post dominator      @  PC=0x1e0 (_1.ptx:113) cvta.to.global.u64 %rd3, %rd2;
GPGPU-Sim PTX: ... end of reconvergence points for _Z17fdtd_step2_kernelPfS_S_i
GPGPU-Sim PTX: ... done pre-decoding instructions for '_Z17fdtd_step2_kernelPfS_S_i'.
GPGPU-Sim PTX: instruction assembly for function '_Z17fdtd_step3_kernelPfS_S_i'...   done.
GPGPU-Sim PTX: finding reconvergence points for '_Z17fdtd_step3_kernelPfS_S_i'...
GPGPU-Sim PTX: Finding dominators for '_Z17fdtd_step3_kernelPfS_S_i'...
GPGPU-Sim PTX: Finding immediate dominators for '_Z17fdtd_step3_kernelPfS_S_i'...
GPGPU-Sim PTX: Finding postdominators for '_Z17fdtd_step3_kernelPfS_S_i'...
GPGPU-Sim PTX: Finding immediate postdominators for '_Z17fdtd_step3_kernelPfS_S_i'...
GPGPU-Sim PTX: pre-decoding instructions for '_Z17fdtd_step3_kernelPfS_S_i'...
GPGPU-Sim PTX: reconvergence points for _Z17fdtd_step3_kernelPfS_S_i...
GPGPU-Sim PTX:  1 (potential) branch divergence @  PC=0x2e0 (_1.ptx:163) @!%p3 bra BB2_2;
GPGPU-Sim PTX:    immediate post dominator      @  PC=0x390 (_1.ptx:189) ret;
GPGPU-Sim PTX:  2 (potential) branch divergence @  PC=0x2e8 (_1.ptx:164) bra.uni BB2_1;
GPGPU-Sim PTX:    immediate post dominator      @  PC=0x2f0 (_1.ptx:167) cvta.to.global.u64 %rd4, %rd2;
GPGPU-Sim PTX: ... end of reconvergence points for _Z17fdtd_step3_kernelPfS_S_i
GPGPU-Sim PTX: ... done pre-decoding instructions for '_Z17fdtd_step3_kernelPfS_S_i'.
GPGPU-Sim PTX: finished parsing EMBEDDED .ptx file _1.ptx
Adding _cuobjdump_1.ptx with cubin handle 1
GPGPU-Sim PTX: extracting embedded .ptx to temporary file "_ptx_7y8tCf"
Running: cat _ptx_7y8tCf | sed 's/.version 1.5/.version 1.4/' | sed 's/, texmode_independent//' | sed 's/\(\.extern \.const\[1\] .b8 \w\+\)\[\]/\1\[1\]/' | sed 's/const\[.\]/const\[0\]/g' > _ptx2_QuSlHi
GPGPU-Sim PTX: generating ptxinfo using "$CUDA_INSTALL_PATH/bin/ptxas --gpu-name=sm_20 -v _ptx2_QuSlHi --output-file  /dev/null 2> _ptx_7y8tCfinfo"
GPGPU-Sim PTX: Kernel '_Z17fdtd_step2_kernelPfS_S_i' : regs=10, lmem=0, smem=0, cmem=60
GPGPU-Sim PTX: Kernel '_Z17fdtd_step1_kernelPfS_S_S_i' : regs=10, lmem=0, smem=0, cmem=68
GPGPU-Sim PTX: Kernel '_Z17fdtd_step3_kernelPfS_S_i' : regs=12, lmem=0, smem=0, cmem=64
GPGPU-Sim PTX: removing ptxinfo using "rm -f _ptx_7y8tCf _ptx2_QuSlHi _ptx_7y8tCfinfo"
GPGPU-Sim PTX: loading globals with explicit initializers... 
GPGPU-Sim PTX: finished loading globals (0 bytes total).
GPGPU-Sim PTX: loading constants with explicit initializers...  done.
GPGPU-Sim PTX: __cudaRegisterFunction _Z17fdtd_step2_kernelPfS_S_i : hostFun 0x0x40167f, fat_cubin_handle = 1
GPGPU-Sim PTX: __cudaRegisterFunction _Z17fdtd_step1_kernelPfS_S_S_i : hostFun 0x0x40158c, fat_cubin_handle = 1

GPGPU-Sim PTX: cudaLaunch for 0x0x40158c (mode=performance simulation) on stream 0
GPGPU-Sim PTX: pushing kernel '_Z17fdtd_step1_kernelPfS_S_S_i' to stream 0, gridDim= (38,150,1) blockDim = (32,8,1) 
GPGPU-Sim uArch: Shader 1 bind to kernel 1 '_Z17fdtd_step1_kernelPfS_S_S_i'
GPGPU-Sim uArch: CTA/core = 8, limited by: threads
GPGPU-Sim uArch: Shader 2 bind to kernel 1 '_Z17fdtd_step1_kernelPfS_S_S_i'
GPGPU-Sim uArch: Shader 3 bind to kernel 1 '_Z17fdtd_step1_kernelPfS_S_S_i'
GPGPU-Sim uArch: Shader 4 bind to kernel 1 '_Z17fdtd_step1_kernelPfS_S_S_i'
GPGPU-Sim uArch: Shader 5 bind to kernel 1 '_Z17fdtd_step1_kernelPfS_S_S_i'
GPGPU-Sim uArch: Shader 6 bind to kernel 1 '_Z17fdtd_step1_kernelPfS_S_S_i'
GPGPU-Sim uArch: Shader 7 bind to kernel 1 '_Z17fdtd_step1_kernelPfS_S_S_i'
GPGPU-Sim uArch: Shader 8 bind to kernel 1 '_Z17fdtd_step1_kernelPfS_S_S_i'
GPGPU-Sim uArch: Shader 9 bind to kernel 1 '_Z17fdtd_step1_kernelPfS_S_S_i'
GPGPU-Sim uArch: Shader 10 bind to kernel 1 '_Z17fdtd_step1_kernelPfS_S_S_i'
GPGPU-Sim uArch: Shader 11 bind to kernel 1 '_Z17fdtd_step1_kernelPfS_S_S_i'
GPGPU-Sim uArch: Shader 12 bind to kernel 1 '_Z17fdtd_step1_kernelPfS_S_S_i'
GPGPU-Sim uArch: Shader 13 bind to kernel 1 '_Z17fdtd_step1_kernelPfS_S_S_i'
GPGPU-Sim uArch: Shader 14 bind to kernel 1 '_Z17fdtd_step1_kernelPfS_S_S_i'
GPGPU-Sim uArch: Shader 15 bind to kernel 1 '_Z17fdtd_step1_kernelPfS_S_S_i'
GPGPU-Sim uArch: Shader 16 bind to kernel 1 '_Z17fdtd_step1_kernelPfS_S_S_i'
GPGPU-Sim uArch: Shader 17 bind to kernel 1 '_Z17fdtd_step1_kernelPfS_S_S_i'
GPGPU-Sim uArch: Shader 18 bind to kernel 1 '_Z17fdtd_step1_kernelPfS_S_S_i'
GPGPU-Sim uArch: Shader 19 bind to kernel 1 '_Z17fdtd_step1_kernelPfS_S_S_i'
GPGPU-Sim uArch: Shader 20 bind to kernel 1 '_Z17fdtd_step1_kernelPfS_S_S_i'
GPGPU-Sim uArch: Shader 21 bind to kernel 1 '_Z17fdtd_step1_kernelPfS_S_S_i'
GPGPU-Sim uArch: Shader 22 bind to kernel 1 '_Z17fdtd_step1_kernelPfS_S_S_i'
GPGPU-Sim uArch: Shader 23 bind to kernel 1 '_Z17fdtd_step1_kernelPfS_S_S_i'
GPGPU-Sim uArch: Shader 24 bind to kernel 1 '_Z17fdtd_step1_kernelPfS_S_S_i'
GPGPU-Sim uArch: Shader 25 bind to kernel 1 '_Z17fdtd_step1_kernelPfS_S_S_i'
GPGPU-Sim uArch: Shader 26 bind to kernel 1 '_Z17fdtd_step1_kernelPfS_S_S_i'
GPGPU-Sim uArch: Shader 27 bind to kernel 1 '_Z17fdtd_step1_kernelPfS_S_S_i'
GPGPU-Sim uArch: Shader 0 bind to kernel 1 '_Z17fdtd_step1_kernelPfS_S_S_i'
GPGPU-Sim uArch: Shader 2 bind to kernel 1 '_Z17fdtd_step1_kernelPfS_S_S_i'
GPGPU-Sim uArch: Shader 3 bind to kernel 1 '_Z17fdtd_step1_kernelPfS_S_S_i'
GPGPU-Sim uArch: Shader 5 bind to kernel 1 '_Z17fdtd_step1_kernelPfS_S_S_i'
GPGPU-Sim uArch: Shader 6 bind to kernel 1 '_Z17fdtd_step1_kernelPfS_S_S_i'
GPGPU-Sim uArch: Shader 9 bind to kernel 1 '_Z17fdtd_step1_kernelPfS_S_S_i'
GPGPU-Sim uArch: Shader 13 bind to kernel 1 '_Z17fdtd_step1_kernelPfS_S_S_i'
GPGPU-Sim uArch: Shader 16 bind to kernel 1 '_Z17fdtd_step1_kernelPfS_S_S_i'
GPGPU-Sim uArch: Shader 17 bind to kernel 1 '_Z17fdtd_step1_kernelPfS_S_S_i'
GPGPU-Sim uArch: Shader 19 bind to kernel 1 '_Z17fdtd_step1_kernelPfS_S_S_i'
GPGPU-Sim uArch: Shader 21 bind to kernel 1 '_Z17fdtd_step1_kernelPfS_S_S_i'
GPGPU-Sim uArch: Shader 22 bind to kernel 1 '_Z17fdtd_step1_kernelPfS_S_S_i'
GPGPU-Sim uArch: Shader 24 bind to kernel 1 '_Z17fdtd_step1_kernelPfS_S_S_i'
GPGPU-Sim uArch: Shader 26 bind to kernel 1 '_Z17fdtd_step1_kernelPfS_S_S_i'
GPGPU-Sim uArch: Shader 27 bind to kernel 1 '_Z17fdtd_step1_kernelPfS_S_S_i'
GPGPU-Sim uArch: Shader 26 bind to kernel 1 '_Z17fdtd_step1_kernelPfS_S_S_i'
GPGPU-Sim uArch: Shader 3 bind to kernel 1 '_Z17fdtd_step1_kernelPfS_S_S_i'
GPGPU-Sim uArch: Shader 6 bind to kernel 1 '_Z17fdtd_step1_kernelPfS_S_S_i'
GPGPU-Sim uArch: Shader 9 bind to kernel 1 '_Z17fdtd_step1_kernelPfS_S_S_i'
GPGPU-Sim uArch: Shader 13 bind to kernel 1 '_Z17fdtd_step1_kernelPfS_S_S_i'
GPGPU-Sim uArch: Shader 14 bind to kernel 1 '_Z17fdtd_step1_kernelPfS_S_S_i'
GPGPU-Sim uArch: Shader 16 bind to kernel 1 '_Z17fdtd_step1_kernelPfS_S_S_i'
GPGPU-Sim uArch: Shader 17 bind to kernel 1 '_Z17fdtd_step1_kernelPfS_S_S_i'
GPGPU-Sim uArch: Shader 19 bind to kernel 1 '_Z17fdtd_step1_kernelPfS_S_S_i'
GPGPU-Sim uArch: Shader 22 bind to kernel 1 '_Z17fdtd_step1_kernelPfS_S_S_i'
GPGPU-Sim uArch: Shader 27 bind to kernel 1 '_Z17fdtd_step1_kernelPfS_S_S_i'
GPGPU-Sim uArch: Shader 5 bind to kernel 1 '_Z17fdtd_step1_kernelPfS_S_S_i'
GPGPU-Sim uArch: Shader 6 bind to kernel 1 '_Z17fdtd_step1_kernelPfS_S_S_i'
GPGPU-Sim uArch: Shader 7 bind to kernel 1 '_Z17fdtd_step1_kernelPfS_S_S_i'
GPGPU-Sim uArch: Shader 8 bind to kernel 1 '_Z17fdtd_step1_kernelPfS_S_S_i'
GPGPU-Sim uArch: Shader 9 bind to kernel 1 '_Z17fdtd_step1_kernelPfS_S_S_i'
GPGPU-Sim uArch: Shader 10 bind to kernel 1 '_Z17fdtd_step1_kernelPfS_S_S_i'
GPGPU-Sim uArch: Shader 11 bind to kernel 1 '_Z17fdtd_step1_kernelPfS_S_S_i'
GPGPU-Sim uArch: Shader 12 bind to kernel 1 '_Z17fdtd_step1_kernelPfS_S_S_i'
GPGPU-Sim uArch: Shader 13 bind to kernel 1 '_Z17fdtd_step1_kernelPfS_S_S_i'
GPGPU-Sim uArch: Shader 14 bind to kernel 1 '_Z17fdtd_step1_kernelPfS_S_S_i'
GPGPU-Sim uArch: Shader 15 bind to kernel 1 '_Z17fdtd_step1_kernelPfS_S_S_i'
GPGPU-Sim uArch: Shader 16 bind to kernel 1 '_Z17fdtd_step1_kernelPfS_S_S_i'
GPGPU-Sim uArch: Shader 17 bind to kernel 1 '_Z17fdtd_step1_kernelPfS_S_S_i'
GPGPU-Sim uArch: Shader 18 bind to kernel 1 '_Z17fdtd_step1_kernelPfS_S_S_i'
GPGPU-Sim uArch: Shader 19 bind to kernel 1 '_Z17fdtd_step1_kernelPfS_S_S_i'
GPGPU-Sim uArch: Shader 20 bind to kernel 1 '_Z17fdtd_step1_kernelPfS_S_S_i'
GPGPU-Sim uArch: Shader 21 bind to kernel 1 '_Z17fdtd_step1_kernelPfS_S_S_i'
GPGPU-Sim uArch: Shader 22 bind to kernel 1 '_Z17fdtd_step1_kernelPfS_S_S_i'
GPGPU-Sim uArch: Shader 23 bind to kernel 1 '_Z17fdtd_step1_kernelPfS_S_S_i'
GPGPU-Sim uArch: Shader 24 bind to kernel 1 '_Z17fdtd_step1_kernelPfS_S_S_i'
GPGPU-Sim uArch: Shader 25 bind to kernel 1 '_Z17fdtd_step1_kernelPfS_S_S_i'
GPGPU-Sim uArch: Shader 26 bind to kernel 1 '_Z17fdtd_step1_kernelPfS_S_S_i'
GPGPU-Sim uArch: Shader 27 bind to kernel 1 '_Z17fdtd_step1_kernelPfS_S_S_i'
GPGPU-Sim uArch: Shader 0 bind to kernel 1 '_Z17fdtd_step1_kernelPfS_S_S_i'
GPGPU-Sim uArch: Shader 1 bind to kernel 1 '_Z17fdtd_step1_kernelPfS_S_S_i'
GPGPU-Sim uArch: Shader 2 bind to kernel 1 '_Z17fdtd_step1_kernelPfS_S_S_i'
GPGPU-Sim uArch: Shader 3 bind to kernel 1 '_Z17fdtd_step1_kernelPfS_S_S_i'
GPGPU-Sim uArch: Shader 4 bind to kernel 1 '_Z17fdtd_step1_kernelPfS_S_S_i'
GPGPU-Sim uArch: Shader 13 bind to kernel 1 '_Z17fdtd_step1_kernelPfS_S_S_i'
GPGPU-Sim uArch: Shader 14 bind to kernel 1 '_Z17fdtd_step1_kernelPfS_S_S_i'
GPGPU-Sim uArch: Shader 16 bind to kernel 1 '_Z17fdtd_step1_kernelPfS_S_S_i'
GPGPU-Sim uArch: Shader 18 bind to kernel 1 '_Z17fdtd_step1_kernelPfS_S_S_i'
GPGPU-Sim uArch: Shader 1 bind to kernel 1 '_Z17fdtd_step1_kernelPfS_S_S_i'
GPGPU-Sim uArch: Shader 2 bind to kernel 1 '_Z17fdtd_step1_kernelPfS_S_S_i'
GPGPU-Sim uArch: Shader 3 bind to kernel 1 '_Z17fdtd_step1_kernelPfS_S_S_i'
GPGPU-Sim uArch: Shader 6 bind to kernel 1 '_Z17fdtd_step1_kernelPfS_S_S_i'
GPGPU-Sim uArch: Shader 10 bind to kernel 1 '_Z17fdtd_step1_kernelPfS_S_S_i'
GPGPU-Sim uArch: Shader 8 bind to kernel 1 '_Z17fdtd_step1_kernelPfS_S_S_i'
GPGPU-Sim uArch: Shader 9 bind to kernel 1 '_Z17fdtd_step1_kernelPfS_S_S_i'
GPGPU-Sim uArch: Shader 11 bind to kernel 1 '_Z17fdtd_step1_kernelPfS_S_S_i'
GPGPU-Sim uArch: Shader 12 bind to kernel 1 '_Z17fdtd_step1_kernelPfS_S_S_i'
GPGPU-Sim uArch: Shader 14 bind to kernel 1 '_Z17fdtd_step1_kernelPfS_S_S_i'
GPGPU-Sim uArch: Shader 16 bind to kernel 1 '_Z17fdtd_step1_kernelPfS_S_S_i'
GPGPU-Sim uArch: Shader 17 bind to kernel 1 '_Z17fdtd_step1_kernelPfS_S_S_i'
GPGPU-Sim uArch: Shader 18 bind to kernel 1 '_Z17fdtd_step1_kernelPfS_S_S_i'
GPGPU-Sim uArch: Shader 19 bind to kernel 1 '_Z17fdtd_step1_kernelPfS_S_S_i'
GPGPU-Sim uArch: Shader 20 bind to kernel 1 '_Z17fdtd_step1_kernelPfS_S_S_i'
GPGPU-Sim uArch: Shader 21 bind to kernel 1 '_Z17fdtd_step1_kernelPfS_S_S_i'
GPGPU-Sim uArch: Shader 23 bind to kernel 1 '_Z17fdtd_step1_kernelPfS_S_S_i'
GPGPU-Sim uArch: Shader 24 bind to kernel 1 '_Z17fdtd_step1_kernelPfS_S_S_i'
GPGPU-Sim uArch: Shader 25 bind to kernel 1 '_Z17fdtd_step1_kernelPfS_S_S_i'
GPGPU-Sim uArch: Shader 26 bind to kernel 1 '_Z17fdtd_step1_kernelPfS_S_S_i'
GPGPU-Sim uArch: Shader 27 bind to kernel 1 '_Z17fdtd_step1_kernelPfS_S_S_i'
GPGPU-Sim uArch: Shader 0 bind to kernel 1 '_Z17fdtd_step1_kernelPfS_S_S_i'
GPGPU-Sim uArch: Shader 1 bind to kernel 1 '_Z17fdtd_step1_kernelPfS_S_S_i'
GPGPU-Sim uArch: Shader 3 bind to kernel 1 '_Z17fdtd_step1_kernelPfS_S_S_i'
GPGPU-Sim uArch: Shader 4 bind to kernel 1 '_Z17fdtd_step1_kernelPfS_S_S_i'
GPGPU-Sim uArch: Shader 6 bind to kernel 1 '_Z17fdtd_step1_kernelPfS_S_S_i'
Destroy streams for kernel 1: size 0
kernel_name = _Z17fdtd_step1_kernelPfS_S_S_i 
kernel_launch_uid = 1 
gpu_sim_cycle = 1652865
gpu_sim_insn = 49297200
gpu_ipc =      29.8253
gpu_tot_sim_cycle = 1875015
gpu_tot_sim_insn = 49297200
gpu_tot_ipc =      26.2916
gpu_tot_issued_cta = 5700
max_total_param_size = 0
gpu_stall_dramfull = 229879
gpu_stall_icnt2sh    = 710796
partiton_reqs_in_parallel = 36133151
partiton_reqs_in_parallel_total    = 0
partiton_level_parallism =      21.8609
partiton_level_parallism_total  =      19.2709
partiton_reqs_in_parallel_util = 36133151
partiton_reqs_in_parallel_util_total    = 0
gpu_sim_cycle_parition_util = 1651882
gpu_tot_sim_cycle_parition_util    = 0
partiton_level_parallism_util =      21.8739
partiton_level_parallism_util_total  =      21.8739
partiton_replys_in_parallel = 271199
partiton_replys_in_parallel_total    = 0
L2_BW  =      15.5520 GB/Sec
L2_BW_total  =      13.7094 GB/Sec
gpu_total_sim_rate=29118

========= Core cache stats =========
L1I_cache:
	L1I_total_cache_accesses = 866248
	L1I_total_cache_misses = 1981
	L1I_total_cache_miss_rate = 0.0023
	L1I_total_cache_pending_hits = 0
	L1I_total_cache_reservation_fails = 6846
L1D_cache:
	L1D_cache_core[0]: Access = 0, Miss = 0, Miss_rate = -nan, Pending_hits = 0, Reservation_fails = 0
	L1D_cache_core[1]: Access = 0, Miss = 0, Miss_rate = -nan, Pending_hits = 0, Reservation_fails = 0
	L1D_cache_core[2]: Access = 0, Miss = 0, Miss_rate = -nan, Pending_hits = 0, Reservation_fails = 0
	L1D_cache_core[3]: Access = 0, Miss = 0, Miss_rate = -nan, Pending_hits = 0, Reservation_fails = 0
	L1D_cache_core[4]: Access = 0, Miss = 0, Miss_rate = -nan, Pending_hits = 0, Reservation_fails = 0
	L1D_cache_core[5]: Access = 0, Miss = 0, Miss_rate = -nan, Pending_hits = 0, Reservation_fails = 0
	L1D_cache_core[6]: Access = 0, Miss = 0, Miss_rate = -nan, Pending_hits = 0, Reservation_fails = 0
	L1D_cache_core[7]: Access = 0, Miss = 0, Miss_rate = -nan, Pending_hits = 0, Reservation_fails = 0
	L1D_cache_core[8]: Access = 0, Miss = 0, Miss_rate = -nan, Pending_hits = 0, Reservation_fails = 0
	L1D_cache_core[9]: Access = 0, Miss = 0, Miss_rate = -nan, Pending_hits = 0, Reservation_fails = 0
	L1D_cache_core[10]: Access = 0, Miss = 0, Miss_rate = -nan, Pending_hits = 0, Reservation_fails = 0
	L1D_cache_core[11]: Access = 0, Miss = 0, Miss_rate = -nan, Pending_hits = 0, Reservation_fails = 0
	L1D_cache_core[12]: Access = 0, Miss = 0, Miss_rate = -nan, Pending_hits = 0, Reservation_fails = 0
	L1D_cache_core[13]: Access = 0, Miss = 0, Miss_rate = -nan, Pending_hits = 0, Reservation_fails = 0
	L1D_cache_core[14]: Access = 0, Miss = 0, Miss_rate = -nan, Pending_hits = 0, Reservation_fails = 0
	L1D_cache_core[15]: Access = 0, Miss = 0, Miss_rate = -nan, Pending_hits = 0, Reservation_fails = 0
	L1D_cache_core[16]: Access = 0, Miss = 0, Miss_rate = -nan, Pending_hits = 0, Reservation_fails = 0
	L1D_cache_core[17]: Access = 0, Miss = 0, Miss_rate = -nan, Pending_hits = 0, Reservation_fails = 0
	L1D_cache_core[18]: Access = 0, Miss = 0, Miss_rate = -nan, Pending_hits = 0, Reservation_fails = 0
	L1D_cache_core[19]: Access = 0, Miss = 0, Miss_rate = -nan, Pending_hits = 0, Reservation_fails = 0
	L1D_cache_core[20]: Access = 0, Miss = 0, Miss_rate = -nan, Pending_hits = 0, Reservation_fails = 0
	L1D_cache_core[21]: Access = 0, Miss = 0, Miss_rate = -nan, Pending_hits = 0, Reservation_fails = 0
	L1D_cache_core[22]: Access = 0, Miss = 0, Miss_rate = -nan, Pending_hits = 0, Reservation_fails = 0
	L1D_cache_core[23]: Access = 0, Miss = 0, Miss_rate = -nan, Pending_hits = 0, Reservation_fails = 0
	L1D_cache_core[24]: Access = 0, Miss = 0, Miss_rate = -nan, Pending_hits = 0, Reservation_fails = 0
	L1D_cache_core[25]: Access = 0, Miss = 0, Miss_rate = -nan, Pending_hits = 0, Reservation_fails = 0
	L1D_cache_core[26]: Access = 0, Miss = 0, Miss_rate = -nan, Pending_hits = 0, Reservation_fails = 0
	L1D_cache_core[27]: Access = 0, Miss = 0, Miss_rate = -nan, Pending_hits = 0, Reservation_fails = 0
	L1D_total_cache_accesses = 0
	L1D_total_cache_misses = 0
	L1D_total_cache_pending_hits = 0
	L1D_total_cache_reservation_fails = 0
	L1D_cache_data_port_util = 0.000
	L1D_cache_fill_port_util = 0.000
L1C_cache:
	L1C_total_cache_accesses = 182400
	L1C_total_cache_misses = 1792
	L1C_total_cache_miss_rate = 0.0098
	L1C_total_cache_pending_hits = 0
	L1C_total_cache_reservation_fails = 4886
L1T_cache:
	L1T_total_cache_accesses = 0
	L1T_total_cache_misses = 0
	L1T_total_cache_pending_hits = 0
	L1T_total_cache_reservation_fails = 0

Total_core_cache_stats:
	Total_core_cache_stats_breakdown[GLOBAL_ACC_R][HIT] = 0
	Total_core_cache_stats_breakdown[GLOBAL_ACC_R][HIT_RESERVED] = 0
	Total_core_cache_stats_breakdown[GLOBAL_ACC_R][MISS] = 0
	Total_core_cache_stats_breakdown[GLOBAL_ACC_R][RESERVATION_FAIL] = 0
	Total_core_cache_stats_breakdown[LOCAL_ACC_R][HIT] = 0
	Total_core_cache_stats_breakdown[LOCAL_ACC_R][HIT_RESERVED] = 0
	Total_core_cache_stats_breakdown[LOCAL_ACC_R][MISS] = 0
	Total_core_cache_stats_breakdown[LOCAL_ACC_R][RESERVATION_FAIL] = 0
	Total_core_cache_stats_breakdown[CONST_ACC_R][HIT] = 180608
	Total_core_cache_stats_breakdown[CONST_ACC_R][HIT_RESERVED] = 0
	Total_core_cache_stats_breakdown[CONST_ACC_R][MISS] = 1792
	Total_core_cache_stats_breakdown[CONST_ACC_R][RESERVATION_FAIL] = 4886
	Total_core_cache_stats_breakdown[TEXTURE_ACC_R][HIT] = 0
	Total_core_cache_stats_breakdown[TEXTURE_ACC_R][HIT_RESERVED] = 0
	Total_core_cache_stats_breakdown[TEXTURE_ACC_R][MISS] = 0
	Total_core_cache_stats_breakdown[TEXTURE_ACC_R][RESERVATION_FAIL] = 0
	Total_core_cache_stats_breakdown[GLOBAL_ACC_W][HIT] = 0
	Total_core_cache_stats_breakdown[GLOBAL_ACC_W][HIT_RESERVED] = 0
	Total_core_cache_stats_breakdown[GLOBAL_ACC_W][MISS] = 0
	Total_core_cache_stats_breakdown[GLOBAL_ACC_W][RESERVATION_FAIL] = 0
	Total_core_cache_stats_breakdown[LOCAL_ACC_W][HIT] = 0
	Total_core_cache_stats_breakdown[LOCAL_ACC_W][HIT_RESERVED] = 0
	Total_core_cache_stats_breakdown[LOCAL_ACC_W][MISS] = 0
	Total_core_cache_stats_breakdown[LOCAL_ACC_W][RESERVATION_FAIL] = 0
	Total_core_cache_stats_breakdown[L1_WRBK_ACC][HIT] = 0
	Total_core_cache_stats_breakdown[L1_WRBK_ACC][HIT_RESERVED] = 0
	Total_core_cache_stats_breakdown[L1_WRBK_ACC][MISS] = 0
	Total_core_cache_stats_breakdown[L1_WRBK_ACC][RESERVATION_FAIL] = 0
	Total_core_cache_stats_breakdown[L2_WRBK_ACC][HIT] = 0
	Total_core_cache_stats_breakdown[L2_WRBK_ACC][HIT_RESERVED] = 0
	Total_core_cache_stats_breakdown[L2_WRBK_ACC][MISS] = 0
	Total_core_cache_stats_breakdown[L2_WRBK_ACC][RESERVATION_FAIL] = 0
	Total_core_cache_stats_breakdown[INST_ACC_R][HIT] = 864267
	Total_core_cache_stats_breakdown[INST_ACC_R][HIT_RESERVED] = 0
	Total_core_cache_stats_breakdown[INST_ACC_R][MISS] = 1981
	Total_core_cache_stats_breakdown[INST_ACC_R][RESERVATION_FAIL] = 6846
	Total_core_cache_stats_breakdown[L1_WR_ALLOC_R][HIT] = 0
	Total_core_cache_stats_breakdown[L1_WR_ALLOC_R][HIT_RESERVED] = 0
	Total_core_cache_stats_breakdown[L1_WR_ALLOC_R][MISS] = 0
	Total_core_cache_stats_breakdown[L1_WR_ALLOC_R][RESERVATION_FAIL] = 0
	Total_core_cache_stats_breakdown[L2_WR_ALLOC_R][HIT] = 0
	Total_core_cache_stats_breakdown[L2_WR_ALLOC_R][HIT_RESERVED] = 0
	Total_core_cache_stats_breakdown[L2_WR_ALLOC_R][MISS] = 0
	Total_core_cache_stats_breakdown[L2_WR_ALLOC_R][RESERVATION_FAIL] = 0
	Total_core_cache_stats_breakdown[CONST_ACC_R][TOTAL_ACCESS] = 182400
	Total_core_cache_stats_breakdown[INST_ACC_R][TOTAL_ACCESS] = 866248
Shader 0 warp_id issue ditsribution:
warp_id:
0, 1, 2, 3, 4, 5, 6, 7, 8, 9, 10, 11, 12, 13, 14, 15, 16, 17, 18, 19, 20, 21, 22, 23, 24, 25, 26, 27, 28, 29, 30, 31, 32, 33, 34, 35, 36, 37, 38, 39, 40, 41, 42, 43, 44, 45, 46, 47, 48, 49, 50, 51, 52, 53, 54, 55, 56, 57, 58, 59, 60, 61, 62, 63, 
distro:
1264, 1272, 1272, 1269, 1270, 1269, 1269, 1272, 1224, 1222, 1223, 1226, 1226, 1224, 1224, 1223, 1181, 1174, 1183, 1177, 1183, 1179, 1181, 1177, 1097, 1096, 1096, 1090, 1097, 1086, 1096, 1092, 1095, 1087, 1095, 1091, 1097, 1090, 1099, 1094, 1011, 1003, 1010, 1004, 1008, 1002, 1010, 1000, 967, 957, 964, 953, 964, 958, 964, 953, 1009, 1002, 1009, 1000, 1004, 1003, 1008, 1002, 
gpgpu_n_tot_thrd_icount = 52521472
gpgpu_n_tot_w_icount = 1641296
gpgpu_n_stall_shd_mem = 578646
gpgpu_n_mem_read_local = 0
gpgpu_n_mem_write_local = 0
gpgpu_n_mem_read_global = 203287
gpgpu_n_mem_write_global = 67800
gpgpu_n_mem_texture = 0
gpgpu_n_mem_const = 28
gpgpu_n_load_insn  = 4317600
gpgpu_n_store_insn = 1440000
gpgpu_n_shmem_insn = 0
gpgpu_n_tex_insn = 0
gpgpu_n_const_mem_insn = 0
gpgpu_n_param_mem_insn = 5836800
gpgpu_n_shmem_bkconflict = 0
gpgpu_n_cache_bkconflict = 0
gpgpu_n_intrawarp_mshr_merge = 0
gpgpu_n_cmem_portconflict = 4886
gpgpu_stall_shd_mem[c_mem][bk_conf] = 4886
gpgpu_stall_shd_mem[c_mem][mshr_rc] = 0
gpgpu_stall_shd_mem[c_mem][icnt_rc] = 0
gpgpu_stall_shd_mem[c_mem][data_port_stall] = 0
gpgpu_stall_shd_mem[t_mem][mshr_rc] = 0
gpgpu_stall_shd_mem[t_mem][icnt_rc] = 0
gpgpu_stall_shd_mem[t_mem][data_port_stall] = 0
gpgpu_stall_shd_mem[s_mem][bk_conf] = 0
gpgpu_stall_shd_mem[gl_mem][bk_conf] = 0
gpgpu_stall_shd_mem[gl_mem][coal_stall] = 399902
gpgpu_stall_shd_mem[gl_mem][data_port_stall] = 0
gpgpu_stall_shd_mem[g_mem_ld][mshr_rc] = 0
gpgpu_stall_shd_mem[g_mem_ld][icnt_rc] = 173858
gpgpu_stall_shd_mem[g_mem_ld][wb_icnt_rc] = 0
gpgpu_stall_shd_mem[g_mem_ld][wb_rsrv_fail] = 0
gpgpu_stall_shd_mem[g_mem_st][mshr_rc] = 0
gpgpu_stall_shd_mem[g_mem_st][icnt_rc] = 0
gpgpu_stall_shd_mem[g_mem_st][wb_icnt_rc] = 0
gpgpu_stall_shd_mem[g_mem_st][wb_rsrv_fail] = 0
gpgpu_stall_shd_mem[l_mem_ld][mshr_rc] = 0
gpgpu_stall_shd_mem[l_mem_ld][icnt_rc] = 0
gpgpu_stall_shd_mem[l_mem_ld][wb_icnt_rc] = 0
gpgpu_stall_shd_mem[l_mem_ld][wb_rsrv_fail] = 0
gpgpu_stall_shd_mem[l_mem_st][mshr_rc] = 0
gpgpu_stall_shd_mem[l_mem_st][icnt_rc] = 0
gpgpu_stall_shd_mem[l_mem_ld][wb_icnt_rc] = 0
gpgpu_stall_shd_mem[l_mem_ld][wb_rsrv_fail] = 0
gpu_reg_bank_conflict_stalls = 0
Warp Occupancy Distribution:
Stall:324376	W0_Idle:32671791	W0_Scoreboard:58267791	W1:0	W2:0	W3:0	W4:0	W5:0	W6:0	W7:0	W8:0	W9:0	W10:0	W11:0	W12:0	W13:0	W14:0	W15:0	W16:21592	W17:0	W18:0	W19:0	W20:0	W21:0	W22:0	W23:0	W24:0	W25:0	W26:0	W27:0	W28:0	W29:0	W30:0	W31:0	W32:1619704
traffic_breakdown_coretomem[CONST_ACC_R] = 224 {8:28,}
traffic_breakdown_coretomem[GLOBAL_ACC_R] = 1626296 {8:203287,}
traffic_breakdown_coretomem[GLOBAL_ACC_W] = 6302400 {72:45600,136:22200,}
traffic_breakdown_coretomem[INST_ACC_R] = 672 {8:84,}
traffic_breakdown_memtocore[CONST_ACC_R] = 2016 {72:28,}
traffic_breakdown_memtocore[GLOBAL_ACC_R] = 18893112 {40:38,72:136723,136:66526,}
traffic_breakdown_memtocore[GLOBAL_ACC_W] = 542400 {8:67800,}
traffic_breakdown_memtocore[INST_ACC_R] = 11424 {136:84,}
maxmrqlatency = 855 
maxdqlatency = 0 
maxmflatency = 128267 
averagemflatency = 4682 
max_icnt2mem_latency = 127997 
max_icnt2sh_latency = 1875014 
mrq_lat_table:28443 	2159 	3120 	5443 	9499 	13594 	18477 	21275 	19162 	2442 	0 	0 	0 	0 	0 	0 	0 	0 	0 	0 	0 	0 	0 	0 	0 	0 	0 	0 	0 	0 	0 	0 	
dq_lat_table:0 	0 	0 	0 	0 	0 	0 	0 	0 	0 	0 	0 	0 	0 	0 	0 	0 	0 	0 	0 	0 	0 	0 	0 	0 	0 	0 	0 	0 	0 	0 	0 	
mf_lat_table:0 	0 	0 	0 	0 	0 	0 	75168 	71781 	82216 	7585 	1372 	1542 	4764 	10024 	16042 	621 	0 	0 	0 	0 	0 	0 	0 	0 	0 	0 	0 	0 	0 	0 	0 	
icnt2mem_lat_table:0 	0 	39846 	23764 	19823 	9443 	54443 	38736 	35354 	15308 	123 	1367 	1541 	4764 	10024 	16101 	562 	0 	0 	0 	0 	0 	0 	0 	
icnt2sh_lat_table:0 	0 	43779 	89084 	65357 	5021 	74 	0 	0 	0 	0 	0 	0 	0 	0 	0 	0 	0 	12286 	18600 	36914 	0 	0 	0 	
mf_lat_pw_table:0 	0 	0 	0 	0 	0 	0 	33 	62 	34 	10 	30 	24 	19 	25 	24 	6 	0 	0 	0 	0 	0 	0 	0 	0 	0 	0 	0 	0 	0 	0 	0 	
maximum concurrent accesses to same row:
dram[0]:        16        16        16        16        16        16        17        17        16        16        16        16        16        16        16        16 
dram[1]:        16        16        16        16        16        16        17        17        16        16        16        16        16        16        16        16 
dram[2]:        16        16        16        16        16        16        17        17        16        16        16        16        16        16        16        16 
dram[3]:        16        16        16        16        16        16        16        16        16        16        16        16        16        16        16        16 
dram[4]:        16        16        16        16        16        16        16        16        16        16        16        16        16        16        16        16 
dram[5]:        16        16        16        16        16        16        16        16        16        16        16        16        16        16        16        16 
dram[6]:        16        16        16        16        16        16        16        16        16        16        16        16        16        16        16        16 
dram[7]:        16        16        16        16        16        16        16        16        16        16        16        16        16        16        16        16 
dram[8]:        16        16        16        16        16        16        16        16        16        16        16        16        16        16        16        16 
dram[9]:        16        16        16        16        16        16        16        16        16        16        16        16        16        16        16        16 
dram[10]:        16        16        16        16        16        16        16        16        16        16        16        16        16        16        16        16 
maximum service time to same row:
dram[0]:    258022    258006    260771    260410    260758    260811    260407    259735    259856    259825    258369    258577    258170    258320    258324    258281 
dram[1]:    254201    254241    260710    260338    260610    260865    260073    260200    259917    260136    258421    258411    258428    258233    258409    258232 
dram[2]:    253734    253978    260664    259723    260832    260865    260311    260585    259688    259994    258650    258489    258293    258253    258289    258407 
dram[3]:    254206    254307    260668    260271    260766    260822    260487    260207    256453    260028    258543    258699    258255    258450    258447    258074 
dram[4]:    254073    254121    260546    259984    260746    260808    260638    260490    259710    259809    258546    258285    258299    258261    258538    258428 
dram[5]:    253835    253895    260770    259911    260904    260862    260673    260517    259861    259783    258579    258551    258263    258482    258301    258274 
dram[6]:    254008    253704    260604    260719    260687    260812    260619    260023    259884    259840    258388    258642    258190    258176    258268    258346 
dram[7]:    254283    254206    260638    260695    260819    260765    260527    260554    259868    260116    258587    258551    258499    258458    258275    258444 
dram[8]:    254133    254040    260702    260379    260852    260736    260371    260337    260062    259968    258365    258384    258148    258294    258198    258290 
dram[9]:    254157    254025    260264    260321    260620    260761    260417    259139    258950    259767    258341    258612    258348    258271    258292    258235 
dram[10]:    257936    257917    260693    260214    260737    260767    260460    260482    259899    259886    258771    258528    258298    258352    258200    258287 
average row accesses per activate:
dram[0]:  6.467890  6.579439  6.400000  6.342342  6.300000  7.218750  6.769231  6.017094  6.017094  6.458715  6.121739  6.400000  5.571429  7.020000  6.641510  7.257732 
dram[1]:  7.410526  7.040000  6.518518  6.641510  6.026087  6.537736  5.632000  5.723577  6.230089  6.769231  5.685484  6.704762  7.020000  6.750000  6.579439  7.257732 
dram[2]:  6.970297  6.458715  6.641510  5.723577  6.718447  6.348624  6.518518  6.130435  6.769231  6.970297  6.518518  6.175438  7.226804  6.551402  6.285714  7.333333 
dram[3]:  6.704762  6.641510  6.518518  6.704762  6.467290  7.521739  6.175438  6.017094  6.175438  6.901961  6.017094  5.966102  6.551402  6.740385  6.704762  6.901961 
dram[4]:  6.769231  6.769231  6.834951  6.285714  6.784314  6.920000  5.818182  6.400000  6.579439  7.040000  6.017094  6.400000  6.740385  6.551402  5.924370  6.650943 
dram[5]:  6.518518  7.333333  6.641510  6.230089  6.123894  6.784314  5.915967  6.400000  6.641510  6.518518  6.285714  6.704762  6.551402  6.490741  7.343750  6.970297 
dram[6]:  6.285714  6.704762  6.704762  7.111111  6.252252  6.609524  6.230089  6.121739  6.518518  7.736264  6.285714  6.518518  7.080808  6.372727  6.641510  6.970297 
dram[7]:  6.121739  6.970297  6.017094  6.175438  6.940000  6.737864  6.121739  7.040000  6.769231  6.579439  6.285714  6.458715  6.149123  6.676190  6.834951  6.970297 
dram[8]:  6.400000  7.569892  6.641510  5.818182  6.803922  6.425926  5.915967  6.518518  6.342342  7.111111  6.342342  5.915967  6.104348  7.163265  6.400000  7.183673 
dram[9]:  6.458715  7.040000  6.901961  6.175438  5.881356  6.141593  6.400000  5.966102  6.579439  6.518518  6.400000  6.704762  6.685714  7.237113  6.175438  6.704762 
dram[10]:  6.641510  7.111111  6.579439  6.175438  6.547170  6.141593  5.723577  6.017094  6.400000  6.704762  6.518518  6.230089  6.381818  6.440367  7.040000  7.040000 
average row locality = 123614/18971 = 6.515945
number of total memory accesses made:
dram[0]:         0         0         0         0         0         0         0         0         0         0         0         0         0         0         0         0 
dram[1]:         0         0         0         0         0         0         0         0         0         0         0         0         0         0         0         0 
dram[2]:         0         0         0         0         0         0         0         0         0         0         0         0         0         0         0         0 
dram[3]:         0         0         0         0         0         0         0         0         0         0         0         0         0         0         0         0 
dram[4]:         0         0         0         0         0         0         0         0         0         0         0         0         0         0         0         0 
dram[5]:         0         0         0         0         0         0         0         0         0         0         0         0         0         0         0         0 
dram[6]:         0         0         0         0         0         0         0         0         0         0         0         0         0         0         0         0 
dram[7]:         0         0         0         0         0         0         0         0         0         0         0         0         0         0         0         0 
dram[8]:         0         0         0         0         0         0         0         0         0         0         0         0         0         0         0         0 
dram[9]:         0         0         0         0         0         0         0         0         0         0         0         0         0         0         0         0 
dram[10]:         0         0         0         0         0         0         0         0         0         0         0         0         0         0         0         0 
total accesses: 0
min_bank_accesses = 0!
min_chip_accesses = 0!
number of total read accesses:
dram[0]:       513       512       512       512       509       509       512       512       512       512       512       512       510       510       512       512 
dram[1]:       512       512       512       512       509       509       512       512       512       512       513       512       510       510       512       512 
dram[2]:       512       512       512       512       509       509       512       512       512       512       512       512       509       509       512       512 
dram[3]:       512       512       512       512       509       509       512       512       512       512       512       512       509       509       512       512 
dram[4]:       512       512       512       512       509       509       512       512       512       512       512       512       509       509       513       513 
dram[5]:       512       512       512       512       509       509       512       512       512       512       512       512       509       509       513       512 
dram[6]:       512       512       512       512       510       510       512       512       512       512       512       512       509       509       512       512 
dram[7]:       512       512       512       512       510       510       512       512       512       512       512       512       509       509       512       512 
dram[8]:       512       512       512       512       510       510       512       512       512       512       512       512       510       510       512       512 
dram[9]:       512       512       512       512       510       510       512       512       512       512       512       512       510       510       512       512 
dram[10]:       512       512       512       512       510       510       512       512       512       512       512       512       510       510       512       512 
total reads: 90005
bank skew: 513/509 = 1.01
chip skew: 8184/8180 = 1.00
number of total write accesses:
dram[0]:       192       192       192       192       184       184       192       192       192       192       192       192       192       192       192       192 
dram[1]:       192       192       192       192       184       184       192       192       192       192       192       192       192       192       192       192 
dram[2]:       192       192       192       192       183       183       192       193       192       192       192       192       192       192       192       192 
dram[3]:       192       192       192       192       183       183       192       192       192       192       192       192       192       192       192       192 
dram[4]:       192       192       192       192       183       183       192       192       192       192       192       192       192       192       192       192 
dram[5]:       192       192       192       192       183       183       192       192       192       192       192       192       192       192       192       192 
dram[6]:       192       192       192       192       184       184       192       192       192       192       192       192       192       192       192       192 
dram[7]:       192       192       192       192       184       184       192       192       192       192       192       192       192       192       192       192 
dram[8]:       192       192       192       192       184       184       192       192       192       192       192       192       192       192       192       192 
dram[9]:       192       192       192       192       184       184       192       192       192       192       192       192       192       192       192       192 
dram[10]:       192       192       192       192       184       184       192       192       192       192       192       192       192       192       192       192 
total reads: 33609
bank skew: 193/183 = 1.05
chip skew: 3056/3054 = 1.00
average mf latency per bank:
dram[0]:       8037      8054     10540     10759     13759     13903     10481     10660      9394      9489      9553      9408      8737      8661     11326     11145
dram[1]:       7982      8196     10615     10840     13243     12828     10711     11074      9382      9367     10648      9643      8485      8742     11195     11553
dram[2]:       8296      8370     11128     10677     12936     12783     10958     10780      9173      9225      9564      9709      9156      9093     11231     11302
dram[3]:       8025      7917     10505     10791     12743     12967     10529     10701      9463      9627      9658      9882      8765      8403     11387     11356
dram[4]:       7972      8074     10933     10880     13385     13140     10605     10635      9686      9466      9708      9659      8444      8657     11079     11488
dram[5]:       7934      7844     10885     10974     13219     12963     10771     10714      9246      9323      9551      9500      8830      9083     11009     10759
dram[6]:       8064      8070     10855     10961     12785     13239     10802     10670      9451      9213     10431     10445      9126      8747     11137     11118
dram[7]:       8153      8029     10913     10639     13304     13163     10550     10360      9323      9182     10114     10153      8650      8599     11119     11569
dram[8]:       7934      8089     10749     10889     13154     13339     10506     10384      9213      9294     10282     10397      8755      8719     11624     10908
dram[9]:       7958      7861     10671     10640     12836     13068     10468     10684      9199      9072     10344     10009      8611      8779     11136     11149
dram[10]:       8345      8551     10729     10522     13746     13778     10553      9928      9176      9435      9821      9884      8871      8948     10994     11118
maximum mf latency per bank:
dram[0]:      63835     63844     63337     63386    123681    123690    127224    127214     63482     63482    123321    123379    128262    128194     64770    124483
dram[1]:      63861    123571     63330     63393    123679    123683    127132    127139     63450     63453    123330    123364    128187    128196    124599    124597
dram[2]:     123699    123701     63351     63355    123678    123697    127146    127149     63407     63462    123324    123374    128210    128230    124588    124593
dram[3]:     123570     63904     63341     63386    123684    123678    127215    127047     63419     63443    123319    123366    128261    128205    124582    124593
dram[4]:      63809    123575     63331     63374    123683    123696    127215    127216     63416     63443    123321    123363    128238    128232    124589    124603
dram[5]:     123576     63865     63325     63383    123697    123672    127186    127053     63439     63442    123320    123371    128197    128218    124580    124606
dram[6]:     123573    123701     63354     63400    123675    123690    127089    127140     63433     63441    128200    128201    128247    128241    124588    124580
dram[7]:     123688    123687     63359     63324    123689    123690    127119    127226     63433     63448    128127    128154    128211    128251    124591    124580
dram[8]:      63866     63872     63335     63370    123690    123698    127200    127043     63406     63440    128192    128200    128235    128188    124590    121860
dram[9]:      63846     63873     63337     63406    123676    123678    127116    127002     63454     63485    128192    128231    128146    128231     64772     64796
dram[10]:     123686    123687     63308     63356    123688    123703    127166     63887     63427     63428    128149    128201    128219    128267     64760     64802
Memory Partition 0: 
Cache L2_bank_000:
MSHR contents

Cache L2_bank_001:
MSHR contents

In Dram Latency Queue (total = 0): 
DRAM[0]: 16 bks, busW=4 BL=8 CL=12, tRRD=2 tCCD=6, tRCD=12 tRAS=28 tRP=12 tRC=40
n_cmd=3069127 n_nop=3020697 n_act=1745 n_pre=1729 n_req=11239 n_rd=32732 n_write=12224 bw_util=0.0293
n_activity=100382 dram_eff=0.8957
bk0: 2052a 3034563i bk1: 2048a 3033086i bk2: 2048a 3034932i bk3: 2048a 3031570i bk4: 2036a 3035787i bk5: 2036a 3037153i bk6: 2048a 3037322i bk7: 2048a 3032917i bk8: 2048a 3033692i bk9: 2048a 3034188i bk10: 2048a 3032025i bk11: 2048a 3031303i bk12: 2040a 3033839i bk13: 2040a 3034646i bk14: 2048a 3033562i bk15: 2048a 3031475i 
dram_util_bins: 0 0 0 0 0 0 0 0 0 0
dram_eff_bins: 0 0 0 0 0 0 0 0 0 0
mrqq: max=64 avg=0.809926
Memory Partition 1: 
Cache L2_bank_002:
MSHR contents

Cache L2_bank_003:
MSHR contents

In Dram Latency Queue (total = 0): 
DRAM[1]: 16 bks, busW=4 BL=8 CL=12, tRRD=2 tCCD=6, tRCD=12 tRAS=28 tRP=12 tRC=40
n_cmd=3069127 n_nop=3020723 n_act=1732 n_pre=1716 n_req=11239 n_rd=32732 n_write=12224 bw_util=0.0293
n_activity=100524 dram_eff=0.8944
bk0: 2048a 3036670i bk1: 2048a 3034784i bk2: 2048a 3035272i bk3: 2048a 3033904i bk4: 2036a 3037694i bk5: 2036a 3036364i bk6: 2048a 3036391i bk7: 2048a 3035225i bk8: 2048a 3036172i bk9: 2048a 3035588i bk10: 2052a 3031894i bk11: 2048a 3031958i bk12: 2040a 3036157i bk13: 2040a 3033240i bk14: 2048a 3033648i bk15: 2048a 3033797i 
dram_util_bins: 0 0 0 0 0 0 0 0 0 0
dram_eff_bins: 0 0 0 0 0 0 0 0 0 0
mrqq: max=64 avg=0.80161
Memory Partition 2: 
Cache L2_bank_004:
MSHR contents

Cache L2_bank_005:
MSHR contents

In Dram Latency Queue (total = 0): 
DRAM[2]: 16 bks, busW=4 BL=8 CL=12, tRRD=2 tCCD=6, tRCD=12 tRAS=28 tRP=12 tRC=40
n_cmd=3069127 n_nop=3020779 n_act=1713 n_pre=1697 n_req=11235 n_rd=32720 n_write=12218 bw_util=0.02928
n_activity=100632 dram_eff=0.8931
bk0: 2048a 3035286i bk1: 2048a 3033705i bk2: 2048a 3032744i bk3: 2048a 3030687i bk4: 2036a 3037925i bk5: 2036a 3035153i bk6: 2048a 3036412i bk7: 2048a 3035139i bk8: 2048a 3036604i bk9: 2048a 3034594i bk10: 2048a 3034484i bk11: 2048a 3032106i bk12: 2036a 3037119i bk13: 2036a 3032778i bk14: 2048a 3033033i bk15: 2048a 3033168i 
dram_util_bins: 0 0 0 0 0 0 0 0 0 0
dram_eff_bins: 0 0 0 0 0 0 0 0 0 0
mrqq: max=64 avg=0.837531
Memory Partition 3: 
Cache L2_bank_006:
MSHR contents

Cache L2_bank_007:
MSHR contents

In Dram Latency Queue (total = 0): 
DRAM[3]: 16 bks, busW=4 BL=8 CL=12, tRRD=2 tCCD=6, tRCD=12 tRAS=28 tRP=12 tRC=40
n_cmd=3069127 n_nop=3020761 n_act=1723 n_pre=1707 n_req=11234 n_rd=32720 n_write=12216 bw_util=0.02928
n_activity=100591 dram_eff=0.8934
bk0: 2048a 3035167i bk1: 2048a 3033418i bk2: 2048a 3035767i bk3: 2048a 3032418i bk4: 2036a 3038590i bk5: 2036a 3037412i bk6: 2048a 3037177i bk7: 2048a 3035493i bk8: 2048a 3035762i bk9: 2048a 3034066i bk10: 2048a 3031414i bk11: 2048a 3032563i bk12: 2036a 3034789i bk13: 2036a 3033532i bk14: 2048a 3032855i bk15: 2048a 3030854i 
dram_util_bins: 0 0 0 0 0 0 0 0 0 0
dram_eff_bins: 0 0 0 0 0 0 0 0 0 0
mrqq: max=64 avg=0.812057
Memory Partition 4: 
Cache L2_bank_008:
MSHR contents

Cache L2_bank_009:
MSHR contents

In Dram Latency Queue (total = 0): 
DRAM[4]: 16 bks, busW=4 BL=8 CL=12, tRRD=2 tCCD=6, tRCD=12 tRAS=28 tRP=12 tRC=40
n_cmd=3069127 n_nop=3020747 n_act=1726 n_pre=1710 n_req=11236 n_rd=32728 n_write=12216 bw_util=0.02929
n_activity=100845 dram_eff=0.8913
bk0: 2048a 3037067i bk1: 2048a 3034981i bk2: 2048a 3034726i bk3: 2048a 3033053i bk4: 2036a 3038758i bk5: 2036a 3036850i bk6: 2048a 3033563i bk7: 2048a 3035642i bk8: 2048a 3032951i bk9: 2048a 3035626i bk10: 2048a 3031193i bk11: 2048a 3030744i bk12: 2036a 3035249i bk13: 2036a 3031746i bk14: 2052a 3032479i bk15: 2052a 3033457i 
dram_util_bins: 0 0 0 0 0 0 0 0 0 0
dram_eff_bins: 0 0 0 0 0 0 0 0 0 0
mrqq: max=64 avg=0.823075
Memory Partition 5: 
Cache L2_bank_010:
MSHR contents

Cache L2_bank_011:
MSHR contents

In Dram Latency Queue (total = 0): 
DRAM[5]: 16 bks, busW=4 BL=8 CL=12, tRRD=2 tCCD=6, tRCD=12 tRAS=28 tRP=12 tRC=40
n_cmd=3069127 n_nop=3020783 n_act=1710 n_pre=1694 n_req=11235 n_rd=32724 n_write=12216 bw_util=0.02929
n_activity=100396 dram_eff=0.8953
bk0: 2048a 3036071i bk1: 2048a 3035481i bk2: 2048a 3035460i bk3: 2048a 3031724i bk4: 2036a 3037882i bk5: 2036a 3034320i bk6: 2048a 3034755i bk7: 2048a 3034930i bk8: 2048a 3034456i bk9: 2048a 3032487i bk10: 2048a 3032272i bk11: 2048a 3031796i bk12: 2036a 3032426i bk13: 2036a 3034043i bk14: 2052a 3034115i bk15: 2048a 3031927i 
dram_util_bins: 0 0 0 0 0 0 0 0 0 0
dram_eff_bins: 0 0 0 0 0 0 0 0 0 0
mrqq: max=64 avg=0.810635
Memory Partition 6: 
Cache L2_bank_012:
MSHR contents

Cache L2_bank_013:
MSHR contents

In Dram Latency Queue (total = 0): 
DRAM[6]: 16 bks, busW=4 BL=8 CL=12, tRRD=2 tCCD=6, tRCD=12 tRAS=28 tRP=12 tRC=40
n_cmd=3069127 n_nop=3020791 n_act=1700 n_pre=1684 n_req=11238 n_rd=32728 n_write=12224 bw_util=0.02929
n_activity=100039 dram_eff=0.8987
bk0: 2048a 3035260i bk1: 2048a 3036048i bk2: 2048a 3034451i bk3: 2048a 3034565i bk4: 2040a 3037881i bk5: 2040a 3035809i bk6: 2048a 3037006i bk7: 2048a 3031693i bk8: 2048a 3035064i bk9: 2048a 3035609i bk10: 2048a 3031409i bk11: 2048a 3031149i bk12: 2036a 3032746i bk13: 2036a 3031249i bk14: 2048a 3033103i bk15: 2048a 3033894i 
dram_util_bins: 0 0 0 0 0 0 0 0 0 0
dram_eff_bins: 0 0 0 0 0 0 0 0 0 0
mrqq: max=64 avg=0.810374
Memory Partition 7: 
Cache L2_bank_014:
MSHR contents

Cache L2_bank_015:
MSHR contents

In Dram Latency Queue (total = 0): 
DRAM[7]: 16 bks, busW=4 BL=8 CL=12, tRRD=2 tCCD=6, tRCD=12 tRAS=28 tRP=12 tRC=40
n_cmd=3069127 n_nop=3020751 n_act=1720 n_pre=1704 n_req=11238 n_rd=32728 n_write=12224 bw_util=0.02929
n_activity=100295 dram_eff=0.8964
bk0: 2048a 3034020i bk1: 2048a 3035891i bk2: 2048a 3034008i bk3: 2048a 3031193i bk4: 2040a 3040093i bk5: 2040a 3036307i bk6: 2048a 3035943i bk7: 2048a 3036913i bk8: 2048a 3036027i bk9: 2048a 3035222i bk10: 2048a 3031159i bk11: 2048a 3027988i bk12: 2036a 3034447i bk13: 2036a 3032745i bk14: 2048a 3033765i bk15: 2048a 3031259i 
dram_util_bins: 0 0 0 0 0 0 0 0 0 0
dram_eff_bins: 0 0 0 0 0 0 0 0 0 0
mrqq: max=64 avg=0.816608
Memory Partition 8: 
Cache L2_bank_016:
MSHR contents

Cache L2_bank_017:
MSHR contents

In Dram Latency Queue (total = 0): 
DRAM[8]: 16 bks, busW=4 BL=8 CL=12, tRRD=2 tCCD=6, tRCD=12 tRAS=28 tRP=12 tRC=40
n_cmd=3069127 n_nop=3020727 n_act=1728 n_pre=1712 n_req=11240 n_rd=32736 n_write=12224 bw_util=0.0293
n_activity=100572 dram_eff=0.8941
bk0: 2048a 3035260i bk1: 2048a 3036445i bk2: 2048a 3036696i bk3: 2048a 3033083i bk4: 2040a 3038282i bk5: 2040a 3035721i bk6: 2048a 3036283i bk7: 2048a 3036294i bk8: 2048a 3035595i bk9: 2048a 3034136i bk10: 2048a 3032638i bk11: 2048a 3031589i bk12: 2040a 3031780i bk13: 2040a 3034986i bk14: 2048a 3033851i bk15: 2048a 3030789i 
dram_util_bins: 0 0 0 0 0 0 0 0 0 0
dram_eff_bins: 0 0 0 0 0 0 0 0 0 0
mrqq: max=64 avg=0.793533
Memory Partition 9: 
Cache L2_bank_018:
MSHR contents

Cache L2_bank_019:
MSHR contents

In Dram Latency Queue (total = 0): 
DRAM[9]: 16 bks, busW=4 BL=8 CL=12, tRRD=2 tCCD=6, tRCD=12 tRAS=28 tRP=12 tRC=40
n_cmd=3069127 n_nop=3020713 n_act=1735 n_pre=1719 n_req=11240 n_rd=32736 n_write=12224 bw_util=0.0293
n_activity=100381 dram_eff=0.8958
bk0: 2048a 3034862i bk1: 2048a 3035093i bk2: 2048a 3034961i bk3: 2048a 3031982i bk4: 2040a 3036121i bk5: 2040a 3035303i bk6: 2048a 3036169i bk7: 2048a 3031753i bk8: 2048a 3035128i bk9: 2048a 3034352i bk10: 2048a 3032455i bk11: 2048a 3031756i bk12: 2040a 3033724i bk13: 2040a 3033229i bk14: 2048a 3033114i bk15: 2048a 3032480i 
dram_util_bins: 0 0 0 0 0 0 0 0 0 0
dram_eff_bins: 0 0 0 0 0 0 0 0 0 0
mrqq: max=64 avg=0.820348
Memory Partition 10: 
Cache L2_bank_020:
MSHR contents

Cache L2_bank_021:
MSHR contents

In Dram Latency Queue (total = 0): 
DRAM[10]: 16 bks, busW=4 BL=8 CL=12, tRRD=2 tCCD=6, tRCD=12 tRAS=28 tRP=12 tRC=40
n_cmd=3069127 n_nop=3020703 n_act=1740 n_pre=1724 n_req=11240 n_rd=32736 n_write=12224 bw_util=0.0293
n_activity=100329 dram_eff=0.8963
bk0: 2048a 3035780i bk1: 2048a 3035337i bk2: 2048a 3035403i bk3: 2048a 3034045i bk4: 2040a 3036447i bk5: 2040a 3035395i bk6: 2048a 3035084i bk7: 2048a 3034407i bk8: 2048a 3035055i bk9: 2048a 3035786i bk10: 2048a 3035107i bk11: 2048a 3032001i bk12: 2040a 3035837i bk13: 2040a 3032344i bk14: 2048a 3033592i bk15: 2048a 3032640i 
dram_util_bins: 0 0 0 0 0 0 0 0 0 0
dram_eff_bins: 0 0 0 0 0 0 0 0 0 0
mrqq: max=64 avg=0.814321

========= L2 cache stats =========
L2_cache_bank[0]: Access = 12344, Miss = 4092, Miss_rate = 0.331, Pending_hits = 3791, Reservation_fails = 0
L2_cache_bank[1]: Access = 12320, Miss = 4091, Miss_rate = 0.332, Pending_hits = 3802, Reservation_fails = 0
L2_cache_bank[2]: Access = 12358, Miss = 4092, Miss_rate = 0.331, Pending_hits = 3759, Reservation_fails = 0
L2_cache_bank[3]: Access = 12318, Miss = 4091, Miss_rate = 0.332, Pending_hits = 3871, Reservation_fails = 0
L2_cache_bank[4]: Access = 12314, Miss = 4090, Miss_rate = 0.332, Pending_hits = 3785, Reservation_fails = 0
L2_cache_bank[5]: Access = 12318, Miss = 4090, Miss_rate = 0.332, Pending_hits = 3838, Reservation_fails = 0
L2_cache_bank[6]: Access = 12321, Miss = 4090, Miss_rate = 0.332, Pending_hits = 3724, Reservation_fails = 0
L2_cache_bank[7]: Access = 12321, Miss = 4090, Miss_rate = 0.332, Pending_hits = 3824, Reservation_fails = 0
L2_cache_bank[8]: Access = 12345, Miss = 4091, Miss_rate = 0.331, Pending_hits = 3798, Reservation_fails = 0
L2_cache_bank[9]: Access = 12347, Miss = 4091, Miss_rate = 0.331, Pending_hits = 3805, Reservation_fails = 0
L2_cache_bank[10]: Access = 12351, Miss = 4091, Miss_rate = 0.331, Pending_hits = 3768, Reservation_fails = 0
L2_cache_bank[11]: Access = 12322, Miss = 4090, Miss_rate = 0.332, Pending_hits = 3829, Reservation_fails = 0
L2_cache_bank[12]: Access = 12321, Miss = 4091, Miss_rate = 0.332, Pending_hits = 3720, Reservation_fails = 0
L2_cache_bank[13]: Access = 12319, Miss = 4091, Miss_rate = 0.332, Pending_hits = 3802, Reservation_fails = 0
L2_cache_bank[14]: Access = 12323, Miss = 4091, Miss_rate = 0.332, Pending_hits = 3736, Reservation_fails = 0
L2_cache_bank[15]: Access = 12323, Miss = 4091, Miss_rate = 0.332, Pending_hits = 3817, Reservation_fails = 0
L2_cache_bank[16]: Access = 12324, Miss = 4092, Miss_rate = 0.332, Pending_hits = 3741, Reservation_fails = 0
L2_cache_bank[17]: Access = 12320, Miss = 4092, Miss_rate = 0.332, Pending_hits = 3822, Reservation_fails = 0
L2_cache_bank[18]: Access = 12322, Miss = 4092, Miss_rate = 0.332, Pending_hits = 3647, Reservation_fails = 0
L2_cache_bank[19]: Access = 12324, Miss = 4092, Miss_rate = 0.332, Pending_hits = 3768, Reservation_fails = 0
L2_cache_bank[20]: Access = 12324, Miss = 4092, Miss_rate = 0.332, Pending_hits = 3724, Reservation_fails = 0
L2_cache_bank[21]: Access = 12320, Miss = 4092, Miss_rate = 0.332, Pending_hits = 3821, Reservation_fails = 0
L2_total_cache_accesses = 271199
L2_total_cache_misses = 90005
L2_total_cache_miss_rate = 0.3319
L2_total_cache_pending_hits = 83192
L2_total_cache_reservation_fails = 0
L2_total_cache_breakdown:
	L2_cache_stats_breakdown[GLOBAL_ACC_R][HIT] = 30240
	L2_cache_stats_breakdown[GLOBAL_ACC_R][HIT_RESERVED] = 83083
	L2_cache_stats_breakdown[GLOBAL_ACC_R][MISS] = 89964
	L2_cache_stats_breakdown[GLOBAL_ACC_R][RESERVATION_FAIL] = 0
	L2_cache_stats_breakdown[LOCAL_ACC_R][HIT] = 0
	L2_cache_stats_breakdown[LOCAL_ACC_R][HIT_RESERVED] = 0
	L2_cache_stats_breakdown[LOCAL_ACC_R][MISS] = 0
	L2_cache_stats_breakdown[LOCAL_ACC_R][RESERVATION_FAIL] = 0
	L2_cache_stats_breakdown[CONST_ACC_R][HIT] = 0
	L2_cache_stats_breakdown[CONST_ACC_R][HIT_RESERVED] = 27
	L2_cache_stats_breakdown[CONST_ACC_R][MISS] = 1
	L2_cache_stats_breakdown[CONST_ACC_R][RESERVATION_FAIL] = 0
	L2_cache_stats_breakdown[TEXTURE_ACC_R][HIT] = 0
	L2_cache_stats_breakdown[TEXTURE_ACC_R][HIT_RESERVED] = 0
	L2_cache_stats_breakdown[TEXTURE_ACC_R][MISS] = 0
	L2_cache_stats_breakdown[TEXTURE_ACC_R][RESERVATION_FAIL] = 0
	L2_cache_stats_breakdown[GLOBAL_ACC_W][HIT] = 67762
	L2_cache_stats_breakdown[GLOBAL_ACC_W][HIT_RESERVED] = 1
	L2_cache_stats_breakdown[GLOBAL_ACC_W][MISS] = 37
	L2_cache_stats_breakdown[GLOBAL_ACC_W][RESERVATION_FAIL] = 0
	L2_cache_stats_breakdown[LOCAL_ACC_W][HIT] = 0
	L2_cache_stats_breakdown[LOCAL_ACC_W][HIT_RESERVED] = 0
	L2_cache_stats_breakdown[LOCAL_ACC_W][MISS] = 0
	L2_cache_stats_breakdown[LOCAL_ACC_W][RESERVATION_FAIL] = 0
	L2_cache_stats_breakdown[L1_WRBK_ACC][HIT] = 0
	L2_cache_stats_breakdown[L1_WRBK_ACC][HIT_RESERVED] = 0
	L2_cache_stats_breakdown[L1_WRBK_ACC][MISS] = 0
	L2_cache_stats_breakdown[L1_WRBK_ACC][RESERVATION_FAIL] = 0
	L2_cache_stats_breakdown[L2_WRBK_ACC][HIT] = 0
	L2_cache_stats_breakdown[L2_WRBK_ACC][HIT_RESERVED] = 0
	L2_cache_stats_breakdown[L2_WRBK_ACC][MISS] = 0
	L2_cache_stats_breakdown[L2_WRBK_ACC][RESERVATION_FAIL] = 0
	L2_cache_stats_breakdown[INST_ACC_R][HIT] = 0
	L2_cache_stats_breakdown[INST_ACC_R][HIT_RESERVED] = 81
	L2_cache_stats_breakdown[INST_ACC_R][MISS] = 3
	L2_cache_stats_breakdown[INST_ACC_R][RESERVATION_FAIL] = 0
	L2_cache_stats_breakdown[L1_WR_ALLOC_R][HIT] = 0
	L2_cache_stats_breakdown[L1_WR_ALLOC_R][HIT_RESERVED] = 0
	L2_cache_stats_breakdown[L1_WR_ALLOC_R][MISS] = 0
	L2_cache_stats_breakdown[L1_WR_ALLOC_R][RESERVATION_FAIL] = 0
	L2_cache_stats_breakdown[L2_WR_ALLOC_R][HIT] = 0
	L2_cache_stats_breakdown[L2_WR_ALLOC_R][HIT_RESERVED] = 0
	L2_cache_stats_breakdown[L2_WR_ALLOC_R][MISS] = 0
	L2_cache_stats_breakdown[L2_WR_ALLOC_R][RESERVATION_FAIL] = 0
	L2_cache_stats_breakdown[GLOBAL_ACC_R][TOTAL_ACCESS] = 203287
	L2_cache_stats_breakdown[CONST_ACC_R][TOTAL_ACCESS] = 28
	L2_cache_stats_breakdown[GLOBAL_ACC_W][TOTAL_ACCESS] = 67800
	L2_cache_stats_breakdown[INST_ACC_R][TOTAL_ACCESS] = 84
L2_cache_data_port_util = 0.010
L2_cache_fill_port_util = 0.010

icnt_total_pkts_mem_to_simt=811179
icnt_total_pkts_simt_to_mem=451199
LD_mem_lat_dist  0 0 0 0 0 0 0 0 0 0 0 0 0 0 0 0 0 0 0 0 0 0 0 0 0 0 0
ST_mem_lat_dist  0 0 0 0 0 0 0 0 0 0 0 0 0 0 0 0 0 0 0 0 0 0 0 0 0 0 0
----------------------------Interconnect-DETAILS--------------------------------
Class 0:
Packet latency average = 48.0342
	minimum = 6
	maximum = 1666
Network latency average = 30.1222
	minimum = 6
	maximum = 1494
Slowest packet = 301954
Flit latency average = 21.794
	minimum = 6
	maximum = 1494
Slowest flit = 698963
Fragmentation average = 0.0857507
	minimum = 0
	maximum = 583
Injected packet rate average = 0.00328156
	minimum = 0.00281632 (at node 6)
	maximum = 0.00373836 (at node 30)
Accepted packet rate average = 0.00328156
	minimum = 0.00281632 (at node 6)
	maximum = 0.00373836 (at node 30)
Injected flit rate average = 0.00763752
	minimum = 0.00468944 (at node 6)
	maximum = 0.0111894 (at node 38)
Accepted flit rate average= 0.00763752
	minimum = 0.00619954 (at node 32)
	maximum = 0.00900165 (at node 10)
Injected packet length average = 2.3274
Accepted packet length average = 2.3274
Total in-flight flits = 0 (0 measured)
====== Overall Traffic Statistics ======
====== Traffic class 0 ======
Packet latency average = 48.0342 (1 samples)
	minimum = 6 (1 samples)
	maximum = 1666 (1 samples)
Network latency average = 30.1222 (1 samples)
	minimum = 6 (1 samples)
	maximum = 1494 (1 samples)
Flit latency average = 21.794 (1 samples)
	minimum = 6 (1 samples)
	maximum = 1494 (1 samples)
Fragmentation average = 0.0857507 (1 samples)
	minimum = 0 (1 samples)
	maximum = 583 (1 samples)
Injected packet rate average = 0.00328156 (1 samples)
	minimum = 0.00281632 (1 samples)
	maximum = 0.00373836 (1 samples)
Accepted packet rate average = 0.00328156 (1 samples)
	minimum = 0.00281632 (1 samples)
	maximum = 0.00373836 (1 samples)
Injected flit rate average = 0.00763752 (1 samples)
	minimum = 0.00468944 (1 samples)
	maximum = 0.0111894 (1 samples)
Accepted flit rate average = 0.00763752 (1 samples)
	minimum = 0.00619954 (1 samples)
	maximum = 0.00900165 (1 samples)
Injected packet size average = 2.3274 (1 samples)
Accepted packet size average = 2.3274 (1 samples)
Hops average = 1 (1 samples)
----------------------------END-of-Interconnect-DETAILS-------------------------


gpgpu_simulation_time = 0 days, 0 hrs, 28 min, 13 sec (1693 sec)
gpgpu_simulation_rate = 29118 (inst/sec)
gpgpu_simulation_rate = 1107 (cycle/sec)
GPGPU-Sim: synchronize waiting for inactive GPU simulation
GPGPU-Sim API: Stream Manager State
GPGPU-Sim: detected inactive GPU simulation thread

GPGPU-Sim PTX: cudaLaunch for 0x0x40167f (mode=performance simulation) on stream 0
GPGPU-Sim PTX: pushing kernel '_Z17fdtd_step2_kernelPfS_S_i' to stream 0, gridDim= (38,150,1) blockDim = (32,8,1) 
GPGPU-Sim uArch: Shader 15 bind to kernel 2 '_Z17fdtd_step2_kernelPfS_S_i'
GPGPU-Sim uArch: CTA/core = 8, limited by: threads
GPGPU-Sim uArch: Shader 16 bind to kernel 2 '_Z17fdtd_step2_kernelPfS_S_i'
GPGPU-Sim uArch: Shader 17 bind to kernel 2 '_Z17fdtd_step2_kernelPfS_S_i'
GPGPU-Sim uArch: Shader 18 bind to kernel 2 '_Z17fdtd_step2_kernelPfS_S_i'
GPGPU-Sim uArch: Shader 19 bind to kernel 2 '_Z17fdtd_step2_kernelPfS_S_i'
GPGPU-Sim uArch: Shader 20 bind to kernel 2 '_Z17fdtd_step2_kernelPfS_S_i'
GPGPU-Sim uArch: Shader 21 bind to kernel 2 '_Z17fdtd_step2_kernelPfS_S_i'
GPGPU-Sim uArch: Shader 22 bind to kernel 2 '_Z17fdtd_step2_kernelPfS_S_i'
GPGPU-Sim uArch: Shader 23 bind to kernel 2 '_Z17fdtd_step2_kernelPfS_S_i'
GPGPU-Sim uArch: Shader 24 bind to kernel 2 '_Z17fdtd_step2_kernelPfS_S_i'
GPGPU-Sim uArch: Shader 25 bind to kernel 2 '_Z17fdtd_step2_kernelPfS_S_i'
GPGPU-Sim uArch: Shader 26 bind to kernel 2 '_Z17fdtd_step2_kernelPfS_S_i'
GPGPU-Sim uArch: Shader 27 bind to kernel 2 '_Z17fdtd_step2_kernelPfS_S_i'
GPGPU-Sim uArch: Shader 0 bind to kernel 2 '_Z17fdtd_step2_kernelPfS_S_i'
GPGPU-Sim uArch: Shader 1 bind to kernel 2 '_Z17fdtd_step2_kernelPfS_S_i'
GPGPU-Sim uArch: Shader 2 bind to kernel 2 '_Z17fdtd_step2_kernelPfS_S_i'
GPGPU-Sim uArch: Shader 3 bind to kernel 2 '_Z17fdtd_step2_kernelPfS_S_i'
GPGPU-Sim uArch: Shader 4 bind to kernel 2 '_Z17fdtd_step2_kernelPfS_S_i'
GPGPU-Sim uArch: Shader 5 bind to kernel 2 '_Z17fdtd_step2_kernelPfS_S_i'
GPGPU-Sim uArch: Shader 6 bind to kernel 2 '_Z17fdtd_step2_kernelPfS_S_i'
GPGPU-Sim uArch: Shader 7 bind to kernel 2 '_Z17fdtd_step2_kernelPfS_S_i'
GPGPU-Sim uArch: Shader 8 bind to kernel 2 '_Z17fdtd_step2_kernelPfS_S_i'
GPGPU-Sim uArch: Shader 9 bind to kernel 2 '_Z17fdtd_step2_kernelPfS_S_i'
GPGPU-Sim uArch: Shader 10 bind to kernel 2 '_Z17fdtd_step2_kernelPfS_S_i'
GPGPU-Sim uArch: Shader 11 bind to kernel 2 '_Z17fdtd_step2_kernelPfS_S_i'
GPGPU-Sim uArch: Shader 12 bind to kernel 2 '_Z17fdtd_step2_kernelPfS_S_i'
GPGPU-Sim uArch: Shader 13 bind to kernel 2 '_Z17fdtd_step2_kernelPfS_S_i'
GPGPU-Sim uArch: Shader 14 bind to kernel 2 '_Z17fdtd_step2_kernelPfS_S_i'
GPGPU-Sim uArch: Shader 16 bind to kernel 2 '_Z17fdtd_step2_kernelPfS_S_i'
GPGPU-Sim uArch: Shader 19 bind to kernel 2 '_Z17fdtd_step2_kernelPfS_S_i'
GPGPU-Sim uArch: Shader 21 bind to kernel 2 '_Z17fdtd_step2_kernelPfS_S_i'
GPGPU-Sim uArch: Shader 24 bind to kernel 2 '_Z17fdtd_step2_kernelPfS_S_i'
GPGPU-Sim uArch: Shader 12 bind to kernel 2 '_Z17fdtd_step2_kernelPfS_S_i'
GPGPU-Sim uArch: Shader 8 bind to kernel 2 '_Z17fdtd_step2_kernelPfS_S_i'
GPGPU-Sim uArch: Shader 9 bind to kernel 2 '_Z17fdtd_step2_kernelPfS_S_i'
GPGPU-Sim uArch: Shader 10 bind to kernel 2 '_Z17fdtd_step2_kernelPfS_S_i'
[...]
F:  1341382----T:  1341582 	 St: c0a10580 Sz: 128 	 Sm: 0 	 T: dma(0.135044)
F:  1341582----T:  1341782 	 St: c0a10680 Sz: 128 	 Sm: 0 	 T: dma(0.135044)
F:  1341782----T:  1341982 	 St: c0a10f00 Sz: 128 	 Sm: 0 	 T: dma(0.135044)
F:  1341982----T:  1342182 	 St: c0a10880 Sz: 128 	 Sm: 0 	 T: dma(0.135044)
F:  1342182----T:  1342382 	 St: c0a10c80 Sz: 128 	 Sm: 0 	 T: dma(0.135044)
F:  1342382----T:  1342582 	 St: c0a10380 Sz: 128 	 Sm: 0 	 T: dma(0.135044)
F:  1342582----T:  1342782 	 St: c0a10480 Sz: 128 	 Sm: 0 	 T: dma(0.135044)
F:  1342782----T:  1342982 	 St: c0a10e00 Sz: 128 	 Sm: 0 	 T: dma(0.135044)
F:  1342982----T:  1343182 	 St: c0a10f80 Sz: 128 	 Sm: 0 	 T: dma(0.135044)
F:  1343182----T:  1343382 	 St: c0a10b00 Sz: 128 	 Sm: 0 	 T: dma(0.135044)
F:  1343382----T:  1346182 	 St: c0a10000 Sz: 8192 	 Sm: 0 	 T: memcpy_h2d(1.890614)
F:  1346182----T:  1353962 	 St: c0a12000 Sz: 57344 	 Sm: 0 	 T: memcpy_h2d(5.253207)
F:  1354600----T:  1357205 	 St: c1020000 Sz: 4096 	 Sm: 0 	 T: memcpy_h2d(1.758947)
F:  1357205----T:  1365445 	 St: c1021000 Sz: 61440 	 Sm: 0 	 T: memcpy_h2d(5.563808)
F:  1365445----T:  1368050 	 St: c1030000 Sz: 4096 	 Sm: 0 	 T: memcpy_h2d(1.758947)
F:  1368050----T:  1383745 	 St: c1031000 Sz: 126976 	 Sm: 0 	 T: memcpy_h2d(10.597569)
F:  1383745----T:  1386350 	 St: c0a20000 Sz: 4096 	 Sm: 0 	 T: memcpy_h2d(1.758947)
F:  1386350----T:  1394590 	 St: c0a21000 Sz: 61440 	 Sm: 0 	 T: memcpy_h2d(5.563808)
F:  1394590----T:  1397195 	 St: c0a30000 Sz: 4096 	 Sm: 0 	 T: memcpy_h2d(1.758947)
F:  1397195----T:  1412890 	 St: c0a31000 Sz: 126976 	 Sm: 0 	 T: memcpy_h2d(10.597569)
F:  1413277----T:  1415882 	 St: c1050000 Sz: 4096 	 Sm: 0 	 T: memcpy_h2d(1.758947)
F:  1415882----T:  1418487 	 St: c1051000 Sz: 4096 	 Sm: 0 	 T: memcpy_h2d(1.758947)
F:  1418487----T:  1421092 	 St: c1052000 Sz: 4096 	 Sm: 0 	 T: memcpy_h2d(1.758947)
F:  1421092----T:  1450875 	 St: c1053000 Sz: 249856 	 Sm: 0 	 T: memcpy_h2d(20.110062)
F:  1450875----T:  1453480 	 St: c0a50000 Sz: 4096 	 Sm: 0 	 T: memcpy_h2d(1.758947)
F:  1453480----T:  1484203 	 St: c0a51000 Sz: 258048 	 Sm: 0 	 T: memcpy_h2d(20.744766)
F:  1485325----T:  1487930 	 St: c1090000 Sz: 4096 	 Sm: 0 	 T: memcpy_h2d(1.758947)
F:  1487930----T:  1548766 	 St: c1091000 Sz: 520192 	 Sm: 0 	 T: memcpy_h2d(41.077652)
F:  1548766----T:  1551371 	 St: c0a90000 Sz: 4096 	 Sm: 0 	 T: memcpy_h2d(1.758947)
F:  1551371----T:  1612207 	 St: c0a91000 Sz: 520192 	 Sm: 0 	 T: memcpy_h2d(41.077652)
F:  1616800----T:  1617000 	 St: c1110dc0 Sz: 64 	 Sm: 0 	 T: dma(0.135044)
F:  1617000----T:  1617200 	 St: c1110e00 Sz: 64 	 Sm: 0 	 T: dma(0.135044)
F:  1617200----T:  1617400 	 St: c1112080 Sz: 128 	 Sm: 0 	 T: dma(0.135044)
F:  1617400----T:  1617600 	 St: c1110dc0 Sz: 64 	 Sm: 0 	 T: dma(0.135044)
F:  1617600----T:  1617800 	 St: c1110e00 Sz: 64 	 Sm: 0 	 T: dma(0.135044)
F:  1617800----T:  1618000 	 St: c1112080 Sz: 128 	 Sm: 0 	 T: dma(0.135044)
F:  1618000----T:  1618200 	 St: c1113340 Sz: 64 	 Sm: 0 	 T: dma(0.135044)
F:  1618200----T:  1618400 	 St: c1113380 Sz: 64 	 Sm: 0 	 T: dma(0.135044)
F:  1618400----T:  1618600 	 St: c1110e40 Sz: 64 	 Sm: 0 	 T: dma(0.135044)
F:  1618600----T:  1618800 	 St: c1110e80 Sz: 64 	 Sm: 0 	 T: dma(0.135044)
F:  1618800----T:  1619000 	 St: c1112100 Sz: 128 	 Sm: 0 	 T: dma(0.135044)
F:  1619000----T:  1619200 	 St: c0b12080 Sz: 128 	 Sm: 0 	 T: dma(0.135044)
F:  1619200----T:  1619400 	 St: c0b10dc0 Sz: 64 	 Sm: 0 	 T: dma(0.135044)
F:  1619400----T:  1619600 	 St: c0b10e00 Sz: 64 	 Sm: 0 	 T: dma(0.135044)
F:  1619600----T:  1619800 	 St: c0b13340 Sz: 64 	 Sm: 0 	 T: dma(0.135044)
F:  1619800----T:  1620000 	 St: c0b13380 Sz: 64 	 Sm: 0 	 T: dma(0.135044)
F:  1620000----T:  1620200 	 St: c0b12100 Sz: 128 	 Sm: 0 	 T: dma(0.135044)
F:  1620200----T:  1622805 	 St: c1110000 Sz: 4096 	 Sm: 0 	 T: memcpy_h2d(1.758947)
F:  1622805----T:  1743894 	 St: c1111000 Sz: 1044480 	 Sm: 0 	 T: memcpy_h2d(81.761650)
F:  1743894----T:  1744094 	 St: c0b10e40 Sz: 64 	 Sm: 0 	 T: dma(0.135044)
F:  1744094----T:  1744294 	 St: c0b10e80 Sz: 64 	 Sm: 0 	 T: dma(0.135044)
F:  1744294----T:  1744494 	 St: c0b10f40 Sz: 64 	 Sm: 0 	 T: dma(0.135044)
F:  1744494----T:  1744694 	 St: c0b10f80 Sz: 64 	 Sm: 0 	 T: dma(0.135044)
F:  1744694----T:  1744894 	 St: c0b10ec0 Sz: 64 	 Sm: 0 	 T: dma(0.135044)
F:  1744894----T:  1745094 	 St: c0b10f00 Sz: 64 	 Sm: 0 	 T: dma(0.135044)
F:  1745094----T:  1747894 	 St: c0b10000 Sz: 8192 	 Sm: 0 	 T: memcpy_h2d(1.890614)
F:  1747894----T:  1868512 	 St: c0b12000 Sz: 1040384 	 Sm: 0 	 T: memcpy_h2d(81.443619)
F:  2097165----T:  2957083 	 	 	 Kl: 2 	 Sm: 0 	 T: kernel_launch(580.633362)
F:  2098832----T:  2101918 	 St: c0010000 Sz: 12288 	 Sm: 0 	 T: memcpy_h2d(2.083727)
F:  2101918----T:  2109240 	 St: c0013000 Sz: 53248 	 Sm: 0 	 T: memcpy_h2d(4.943957)
F:  2109240----T:  2115652 	 St: c0020000 Sz: 45056 	 Sm: 0 	 T: memcpy_h2d(4.329507)
F:  2115652----T:  2119464 	 St: c002b000 Sz: 20480 	 Sm: 0 	 T: memcpy_h2d(2.573936)
F:  2119464----T:  2122264 	 St: c0030000 Sz: 8192 	 Sm: 0 	 T: memcpy_h2d(1.890614)
F:  2122264----T:  2137490 	 St: c0032000 Sz: 122880 	 Sm: 0 	 T: memcpy_h2d(10.280891)
F:  2138339----T:  2141139 	 St: c0050000 Sz: 8192 	 Sm: 0 	 T: memcpy_h2d(1.890614)
F:  2141139----T:  2171392 	 St: c0052000 Sz: 253952 	 Sm: 0 	 T: memcpy_h2d(20.427414)
F:  2173099----T:  2173299 	 St: c0091900 Sz: 128 	 Sm: 0 	 T: dma(0.135044)
F:  2173299----T:  2173499 	 St: c0091980 Sz: 64 	 Sm: 0 	 T: dma(0.135044)
F:  2173499----T:  2173699 	 St: c0091480 Sz: 128 	 Sm: 0 	 T: dma(0.135044)
F:  2173699----T:  2173899 	 St: c0091500 Sz: 64 	 Sm: 0 	 T: dma(0.135044)
F:  2173899----T:  2174099 	 St: c00939c0 Sz: 64 	 Sm: 0 	 T: dma(0.135044)
F:  2174099----T:  2174299 	 St: c0093a00 Sz: 64 	 Sm: 0 	 T: dma(0.135044)
F:  2174299----T:  2174499 	 St: c0091200 Sz: 128 	 Sm: 0 	 T: dma(0.135044)
F:  2174499----T:  2174699 	 St: c0091280 Sz: 64 	 Sm: 0 	 T: dma(0.135044)
F:  2174699----T:  2174899 	 St: c0091280 Sz: 128 	 Sm: 0 	 T: dma(0.135044)
F:  2174899----T:  2175099 	 St: c0091300 Sz: 64 	 Sm: 0 	 T: dma(0.135044)
F:  2175099----T:  2175299 	 St: c0090260 Sz: 32 	 Sm: 0 	 T: dma(0.135044)
F:  2175299----T:  2175499 	 St: c0090280 Sz: 128 	 Sm: 0 	 T: dma(0.135044)
F:  2175499----T:  2175699 	 St: c0090660 Sz: 32 	 Sm: 0 	 T: dma(0.135044)
F:  2175699----T:  2175899 	 St: c0090680 Sz: 128 	 Sm: 0 	 T: dma(0.135044)
F:  2175899----T:  2176099 	 St: c0091100 Sz: 128 	 Sm: 0 	 T: dma(0.135044)
F:  2176099----T:  2176299 	 St: c0091180 Sz: 64 	 Sm: 0 	 T: dma(0.135044)
F:  2176299----T:  2176499 	 St: c0091980 Sz: 128 	 Sm: 0 	 T: dma(0.135044)
F:  2176499----T:  2176699 	 St: c0096540 Sz: 64 	 Sm: 0 	 T: dma(0.135044)
F:  2176699----T:  2176899 	 St: c0091a00 Sz: 64 	 Sm: 0 	 T: dma(0.135044)
F:  2176899----T:  2177099 	 St: c0096580 Sz: 128 	 Sm: 0 	 T: dma(0.135044)
F:  2177099----T:  2179899 	 St: c0090000 Sz: 8192 	 Sm: 0 	 T: memcpy_h2d(1.890614)
F:  2179899----T:  2240264 	 St: c0092000 Sz: 516096 	 Sm: 0 	 T: memcpy_h2d(40.759621)
F:  2244935----T:  2245135 	 St: c0112060 Sz: 32 	 Sm: 0 	 T: dma(0.135044)
F:  2245135----T:  2245335 	 St: c0112080 Sz: 128 	 Sm: 0 	 T: dma(0.135044)
F:  2245335----T:  2245535 	 St: c01103e0 Sz: 32 	 Sm: 0 	 T: dma(0.135044)
F:  2245535----T:  2245735 	 St: c0110400 Sz: 128 	 Sm: 0 	 T: dma(0.135044)
F:  2245735----T:  2245935 	 St: c0112960 Sz: 32 	 Sm: 0 	 T: dma(0.135044)
F:  2245935----T:  2246135 	 St: c0112980 Sz: 128 	 Sm: 0 	 T: dma(0.135044)
F:  2246135----T:  2246335 	 St: c01145e0 Sz: 32 	 Sm: 0 	 T: dma(0.135044)
F:  2246335----T:  2246535 	 St: c0114600 Sz: 128 	 Sm: 0 	 T: dma(0.135044)
F:  2246535----T:  2249140 	 St: c0110000 Sz: 4096 	 Sm: 0 	 T: memcpy_h2d(1.758947)
F:  2249140----T:  2370229 	 St: c0111000 Sz: 1044480 	 Sm: 0 	 T: memcpy_h2d(81.761650)
F:  2381406----T:  2381606 	 St: c0211c40 Sz: 64 	 Sm: 0 	 T: dma(0.135044)
F:  2381606----T:  2381806 	 St: c0211c80 Sz: 128 	 Sm: 0 	 T: dma(0.135044)
F:  2381806----T:  2382006 	 St: c0212340 Sz: 64 	 Sm: 0 	 T: dma(0.135044)
F:  2382006----T:  2382206 	 St: c0212380 Sz: 128 	 Sm: 0 	 T: dma(0.135044)
F:  2382206----T:  2382406 	 St: c02105c0 Sz: 64 	 Sm: 0 	 T: dma(0.135044)
F:  2382406----T:  2382606 	 St: c0210600 Sz: 128 	 Sm: 0 	 T: dma(0.135044)
F:  2382606----T:  2382806 	 St: c0212240 Sz: 64 	 Sm: 0 	 T: dma(0.135044)
F:  2382806----T:  2383006 	 St: c0212280 Sz: 128 	 Sm: 0 	 T: dma(0.135044)
F:  2383006----T:  2383206 	 St: c0214260 Sz: 32 	 Sm: 0 	 T: dma(0.135044)
F:  2383206----T:  2383406 	 St: c0214280 Sz: 128 	 Sm: 0 	 T: dma(0.135044)
F:  2383406----T:  2383606 	 St: c0210440 Sz: 64 	 Sm: 0 	 T: dma(0.135044)
F:  2383606----T:  2383806 	 St: c0210480 Sz: 128 	 Sm: 0 	 T: dma(0.135044)
F:  2383806----T:  2384006 	 St: c02120c0 Sz: 64 	 Sm: 0 	 T: dma(0.135044)
F:  2384006----T:  2384206 	 St: c0212b40 Sz: 64 	 Sm: 0 	 T: dma(0.135044)
F:  2384206----T:  2384406 	 St: c0212100 Sz: 128 	 Sm: 0 	 T: dma(0.135044)
F:  2384406----T:  2384606 	 St: c0212b80 Sz: 128 	 Sm: 0 	 T: dma(0.135044)
F:  2384606----T:  2384806 	 St: c0211080 Sz: 128 	 Sm: 0 	 T: dma(0.135044)
F:  2384806----T:  2385006 	 St: c0211100 Sz: 32 	 Sm: 0 	 T: dma(0.135044)
F:  2385006----T:  2385206 	 St: c0218d60 Sz: 32 	 Sm: 0 	 T: dma(0.135044)
F:  2385206----T:  2385406 	 St: c0218d80 Sz: 128 	 Sm: 0 	 T: dma(0.135044)
F:  2385406----T:  2385606 	 St: c0222200 Sz: 128 	 Sm: 0 	 T: dma(0.135044)
F:  2385606----T:  2385806 	 St: c0222280 Sz: 32 	 Sm: 0 	 T: dma(0.135044)
F:  2385806----T:  2386006 	 St: c0224780 Sz: 128 	 Sm: 0 	 T: dma(0.135044)
F:  2386006----T:  2386206 	 St: c0224800 Sz: 32 	 Sm: 0 	 T: dma(0.135044)
F:  2386206----T:  2386406 	 St: c0220f40 Sz: 64 	 Sm: 0 	 T: dma(0.135044)
F:  2386406----T:  2386606 	 St: c0220f80 Sz: 128 	 Sm: 0 	 T: dma(0.135044)
F:  2386606----T:  2386806 	 St: c02234c0 Sz: 64 	 Sm: 0 	 T: dma(0.135044)
F:  2386806----T:  2387006 	 St: c0223500 Sz: 128 	 Sm: 0 	 T: dma(0.135044)
F:  2387006----T:  2387206 	 St: c0225a60 Sz: 32 	 Sm: 0 	 T: dma(0.135044)
F:  2387206----T:  2387406 	 St: c0225a80 Sz: 128 	 Sm: 0 	 T: dma(0.135044)
F:  2387406----T:  2390206 	 St: c0210000 Sz: 8192 	 Sm: 0 	 T: memcpy_h2d(1.890614)
F:  2390206----T:  2397986 	 St: c0212000 Sz: 57344 	 Sm: 0 	 T: memcpy_h2d(5.253207)
F:  2398628----T:  2401714 	 St: c0220000 Sz: 12288 	 Sm: 0 	 T: memcpy_h2d(2.083727)
F:  2401714----T:  2401914 	 St: c02329c0 Sz: 64 	 Sm: 0 	 T: dma(0.135044)
F:  2401914----T:  2402114 	 St: c0232a00 Sz: 128 	 Sm: 0 	 T: dma(0.135044)
F:  2402114----T:  2402314 	 St: c0253a00 Sz: 128 	 Sm: 0 	 T: dma(0.135044)
F:  2402314----T:  2402514 	 St: c0253a80 Sz: 64 	 Sm: 0 	 T: dma(0.135044)
F:  2402514----T:  2402714 	 St: c0253680 Sz: 128 	 Sm: 0 	 T: dma(0.135044)
F:  2402714----T:  2402914 	 St: c0253700 Sz: 64 	 Sm: 0 	 T: dma(0.135044)
F:  2402914----T:  2403114 	 St: c0251480 Sz: 128 	 Sm: 0 	 T: dma(0.135044)
F:  2403114----T:  2403314 	 St: c0251500 Sz: 64 	 Sm: 0 	 T: dma(0.135044)
F:  2403314----T:  2403514 	 St: c0253600 Sz: 128 	 Sm: 0 	 T: dma(0.135044)
F:  2403514----T:  2403714 	 St: c0253680 Sz: 64 	 Sm: 0 	 T: dma(0.135044)
F:  2403714----T:  2403914 	 St: c0251800 Sz: 128 	 Sm: 0 	 T: dma(0.135044)
F:  2403914----T:  2404114 	 St: c0251880 Sz: 64 	 Sm: 0 	 T: dma(0.135044)
F:  2404114----T:  2404314 	 St: c0251600 Sz: 128 	 Sm: 0 	 T: dma(0.135044)
F:  2404314----T:  2411636 	 St: c0223000 Sz: 53248 	 Sm: 0 	 T: memcpy_h2d(4.943957)
F:  2411636----T:  2414241 	 St: c0230000 Sz: 4096 	 Sm: 0 	 T: memcpy_h2d(1.758947)
F:  2414241----T:  2429936 	 St: c0231000 Sz: 126976 	 Sm: 0 	 T: memcpy_h2d(10.597569)
F:  2429936----T:  2432736 	 St: c0250000 Sz: 8192 	 Sm: 0 	 T: memcpy_h2d(1.890614)
F:  2432736----T:  2462989 	 St: c0252000 Sz: 253952 	 Sm: 0 	 T: memcpy_h2d(20.427414)
F:  2466568----T:  2466768 	 St: c0295300 Sz: 128 	 Sm: 0 	 T: dma(0.135044)
F:  2466768----T:  2466968 	 St: c0295380 Sz: 32 	 Sm: 0 	 T: dma(0.135044)
F:  2466968----T:  2469573 	 St: c0290000 Sz: 4096 	 Sm: 0 	 T: memcpy_h2d(1.758947)
F:  2469573----T:  2530409 	 St: c0291000 Sz: 520192 	 Sm: 0 	 T: memcpy_h2d(41.077652)
F:  2535417----T:  2535617 	 St: c0310560 Sz: 32 	 Sm: 0 	 T: dma(0.135044)
F:  2535617----T:  2535817 	 St: c0310580 Sz: 128 	 Sm: 0 	 T: dma(0.135044)
F:  2535817----T:  2536017 	 St: c0310000 Sz: 128 	 Sm: 0 	 T: dma(0.135044)
F:  2536017----T:  2536217 	 St: c0310080 Sz: 64 	 Sm: 0 	 T: dma(0.135044)
F:  2536217----T:  2536417 	 St: c0310b60 Sz: 32 	 Sm: 0 	 T: dma(0.135044)
F:  2536417----T:  2536617 	 St: c0310b80 Sz: 128 	 Sm: 0 	 T: dma(0.135044)
F:  2536617----T:  2536817 	 St: c0310100 Sz: 128 	 Sm: 0 	 T: dma(0.135044)
F:  2536817----T:  2537017 	 St: c0310180 Sz: 64 	 Sm: 0 	 T: dma(0.135044)
F:  2537017----T:  2537217 	 St: c0310860 Sz: 32 	 Sm: 0 	 T: dma(0.135044)
F:  2537217----T:  2537417 	 St: c0310880 Sz: 128 	 Sm: 0 	 T: dma(0.135044)
F:  2537417----T:  2537617 	 St: c0319140 Sz: 64 	 Sm: 0 	 T: dma(0.135044)
F:  2537617----T:  2537817 	 St: c0319180 Sz: 128 	 Sm: 0 	 T: dma(0.135044)
F:  2537817----T:  2538017 	 St: c03105e0 Sz: 32 	 Sm: 0 	 T: dma(0.135044)
F:  2538017----T:  2538217 	 St: c0310600 Sz: 128 	 Sm: 0 	 T: dma(0.135044)
F:  2538217----T:  2541303 	 St: c0310000 Sz: 12288 	 Sm: 0 	 T: memcpy_h2d(2.083727)
F:  2541303----T:  2661451 	 St: c0313000 Sz: 1036288 	 Sm: 0 	 T: memcpy_h2d(81.126266)
F:  2672533----T:  2672733 	 St: c0411300 Sz: 128 	 Sm: 0 	 T: dma(0.135044)
F:  2672733----T:  2672933 	 St: c0411380 Sz: 64 	 Sm: 0 	 T: dma(0.135044)
F:  2672933----T:  2673133 	 St: c0411380 Sz: 128 	 Sm: 0 	 T: dma(0.135044)
F:  2673133----T:  2673333 	 St: c0411400 Sz: 64 	 Sm: 0 	 T: dma(0.135044)
F:  2673333----T:  2673533 	 St: c0420700 Sz: 128 	 Sm: 0 	 T: dma(0.135044)
F:  2673533----T:  2673733 	 St: c0420780 Sz: 32 	 Sm: 0 	 T: dma(0.135044)
F:  2673733----T:  2673933 	 St: c0420880 Sz: 128 	 Sm: 0 	 T: dma(0.135044)
F:  2673933----T:  2674133 	 St: c0420900 Sz: 32 	 Sm: 0 	 T: dma(0.135044)
F:  2674133----T:  2674333 	 St: c0420e00 Sz: 128 	 Sm: 0 	 T: dma(0.135044)
F:  2674333----T:  2674533 	 St: c0420e80 Sz: 32 	 Sm: 0 	 T: dma(0.135044)
F:  2674533----T:  2674733 	 St: c0421280 Sz: 128 	 Sm: 0 	 T: dma(0.135044)
F:  2674733----T:  2674933 	 St: c0421300 Sz: 32 	 Sm: 0 	 T: dma(0.135044)
F:  2674933----T:  2675133 	 St: c0420780 Sz: 128 	 Sm: 0 	 T: dma(0.135044)
F:  2675133----T:  2679352 	 St: c0410000 Sz: 24576 	 Sm: 0 	 T: memcpy_h2d(2.848751)
F:  2679352----T:  2685313 	 St: c0416000 Sz: 40960 	 Sm: 0 	 T: memcpy_h2d(4.024983)
F:  2685313----T:  2687918 	 St: c0420000 Sz: 4096 	 Sm: 0 	 T: memcpy_h2d(1.758947)
F:  2687918----T:  2696158 	 St: c0421000 Sz: 61440 	 Sm: 0 	 T: memcpy_h2d(5.563808)
F:  2697265----T:  2697465 	 St: c0430100 Sz: 128 	 Sm: 0 	 T: dma(0.135044)
F:  2697465----T:  2697665 	 St: c0430180 Sz: 32 	 Sm: 0 	 T: dma(0.135044)
F:  2697665----T:  2697865 	 St: c0430400 Sz: 128 	 Sm: 0 	 T: dma(0.135044)
F:  2697865----T:  2698065 	 St: c0430480 Sz: 32 	 Sm: 0 	 T: dma(0.135044)
F:  2698065----T:  2698265 	 St: c0452e00 Sz: 128 	 Sm: 0 	 T: dma(0.135044)
F:  2698265----T:  2698465 	 St: c0452e80 Sz: 32 	 Sm: 0 	 T: dma(0.135044)
F:  2698465----T:  2698665 	 St: c0457900 Sz: 128 	 Sm: 0 	 T: dma(0.135044)
F:  2698665----T:  2698865 	 St: c0457980 Sz: 32 	 Sm: 0 	 T: dma(0.135044)
F:  2698865----T:  2699065 	 St: c0455300 Sz: 128 	 Sm: 0 	 T: dma(0.135044)
F:  2699065----T:  2699265 	 St: c0455380 Sz: 32 	 Sm: 0 	 T: dma(0.135044)
F:  2699265----T:  2699465 	 St: c0457880 Sz: 128 	 Sm: 0 	 T: dma(0.135044)
F:  2699465----T:  2699665 	 St: c0457900 Sz: 32 	 Sm: 0 	 T: dma(0.135044)
F:  2699665----T:  2699865 	 St: c0455280 Sz: 128 	 Sm: 0 	 T: dma(0.135044)
F:  2699865----T:  2700065 	 St: c0455300 Sz: 32 	 Sm: 0 	 T: dma(0.135044)
F:  2700065----T:  2702670 	 St: c0430000 Sz: 4096 	 Sm: 0 	 T: memcpy_h2d(1.758947)
F:  2702670----T:  2718365 	 St: c0431000 Sz: 126976 	 Sm: 0 	 T: memcpy_h2d(10.597569)
F:  2718365----T:  2722584 	 St: c0450000 Sz: 24576 	 Sm: 0 	 T: memcpy_h2d(2.848751)
F:  2722584----T:  2750956 	 St: c0456000 Sz: 237568 	 Sm: 0 	 T: memcpy_h2d(19.157326)
F:  2752823----T:  2753023 	 St: c04904c0 Sz: 64 	 Sm: 0 	 T: dma(0.135044)
F:  2753023----T:  2753223 	 St: c0490500 Sz: 128 	 Sm: 0 	 T: dma(0.135044)
F:  2753223----T:  2753423 	 St: c0490140 Sz: 64 	 Sm: 0 	 T: dma(0.135044)
F:  2753423----T:  2753623 	 St: c0490180 Sz: 128 	 Sm: 0 	 T: dma(0.135044)
F:  2753623----T:  2753823 	 St: c0490640 Sz: 64 	 Sm: 0 	 T: dma(0.135044)
F:  2753823----T:  2754023 	 St: c0490680 Sz: 128 	 Sm: 0 	 T: dma(0.135044)
F:  2754023----T:  2754223 	 St: c0490440 Sz: 64 	 Sm: 0 	 T: dma(0.135044)
F:  2754223----T:  2754423 	 St: c0490480 Sz: 128 	 Sm: 0 	 T: dma(0.135044)
F:  2754423----T:  2754623 	 St: c0491700 Sz: 128 	 Sm: 0 	 T: dma(0.135044)
F:  2754623----T:  2754823 	 St: c0491780 Sz: 32 	 Sm: 0 	 T: dma(0.135044)
F:  2754823----T:  2755023 	 St: c0490540 Sz: 64 	 Sm: 0 	 T: dma(0.135044)
F:  2755023----T:  2755223 	 St: c0490580 Sz: 128 	 Sm: 0 	 T: dma(0.135044)
F:  2755223----T:  2755423 	 St: c0490a40 Sz: 64 	 Sm: 0 	 T: dma(0.135044)
F:  2755423----T:  2755623 	 St: c0490a80 Sz: 128 	 Sm: 0 	 T: dma(0.135044)
F:  2755623----T:  2755823 	 St: c04909c0 Sz: 64 	 Sm: 0 	 T: dma(0.135044)
F:  2755823----T:  2756023 	 St: c0490a00 Sz: 128 	 Sm: 0 	 T: dma(0.135044)
F:  2756023----T:  2758628 	 St: c0490000 Sz: 4096 	 Sm: 0 	 T: memcpy_h2d(1.758947)
F:  2758628----T:  2819464 	 St: c0491000 Sz: 520192 	 Sm: 0 	 T: memcpy_h2d(41.077652)
F:  2825838----T:  2826038 	 St: c0513180 Sz: 128 	 Sm: 0 	 T: dma(0.135044)
F:  2826038----T:  2826238 	 St: c0513200 Sz: 32 	 Sm: 0 	 T: dma(0.135044)
F:  2826238----T:  2826438 	 St: c0513280 Sz: 128 	 Sm: 0 	 T: dma(0.135044)
F:  2826438----T:  2826638 	 St: c0513300 Sz: 32 	 Sm: 0 	 T: dma(0.135044)
F:  2826638----T:  2826838 	 St: c0513200 Sz: 128 	 Sm: 0 	 T: dma(0.135044)
F:  2826838----T:  2827038 	 St: c0513280 Sz: 32 	 Sm: 0 	 T: dma(0.135044)
F:  2827038----T:  2827238 	 St: c0510e00 Sz: 128 	 Sm: 0 	 T: dma(0.135044)
F:  2827238----T:  2827438 	 St: c0510e80 Sz: 32 	 Sm: 0 	 T: dma(0.135044)
F:  2827438----T:  2827638 	 St: c0513380 Sz: 128 	 Sm: 0 	 T: dma(0.135044)
F:  2827638----T:  2831068 	 St: c0510000 Sz: 16384 	 Sm: 0 	 T: memcpy_h2d(2.316003)
F:  2831068----T:  2950745 	 St: c0514000 Sz: 1032192 	 Sm: 0 	 T: memcpy_h2d(80.808235)
F:  3179233----T:  3266572 	 	 	 Kl: 3 	 Sm: 0 	 T: kernel_launch(58.972992)
F:  3488722----T:  3543476 	 	 	 Kl: 4 	 Sm: 0 	 T: kernel_launch(36.970966)
F:  3765626----T:  3830098 	 	 	 Kl: 5 	 Sm: 0 	 T: kernel_launch(43.532749)
F:  4052248----T:  4138305 	 	 	 Kl: 6 	 Sm: 0 	 T: kernel_launch(58.107361)
F:  4360455----T:  4415351 	 	 	 Kl: 7 	 Sm: 0 	 T: kernel_launch(37.066845)
F:  4637501----T:  4701759 	 	 	 Kl: 8 	 Sm: 0 	 T: kernel_launch(43.388252)
F:  4923909----T:  5010128 	 	 	 Kl: 9 	 Sm: 0 	 T: kernel_launch(58.216747)
F:  5232278----T:  5287320 	 	 	 Kl: 10 	 Sm: 0 	 T: kernel_launch(37.165428)
F:  5509470----T:  5573599 	 	 	 Kl: 11 	 Sm: 0 	 T: kernel_launch(43.301147)
F:  5795749----T:  5881757 	 	 	 Kl: 12 	 Sm: 0 	 T: kernel_launch(58.074276)
F:  6103907----T:  6158732 	 	 	 Kl: 13 	 Sm: 0 	 T: kernel_launch(37.018906)
F:  6380882----T:  6445225 	 	 	 Kl: 14 	 Sm: 0 	 T: kernel_launch(43.445644)
F:  6667375----T:  6753711 	 	 	 Kl: 15 	 Sm: 0 	 T: kernel_launch(58.295746)
Tot_prefetch_time: 0(cycle), 0.000000(us)
Tot_kernel_exec_time: 3421461(cycle), 2310.237061(us)
Tot_kernel_exec_time_and_fault_time: 7420161(cycle), 5010.236816(us)
Tot_memcpy_h2d_time: 2355636(cycle), 1590.571289(us)
Tot_memcpy_d2h_time: 0(cycle), 0.000000(us)
Tot_memcpy_time: 2355636(cycle), 1590.571289(us)
Tot_devicesync_time: 0(cycle), 0.000000(us)
Tot_writeback_time: 0(cycle), 0.000000(us)
Tot_dma_time: 54600(cycle), 36.866982(us)
Tot_memcpy_d2h_sync_wb_time: 0(cycle), 0.000000(us)
GPGPU-Sim: *** exit detected ***
