

        *** GPGPU-Sim Simulator Version 3.2.2  [build gpgpu-sim_git-commit-c8c883f82f149f8a735f810bff4b4328d99c95c2_modified_0] ***


GPGPU-Sim PTX: simulation mode 0 (can change with PTX_SIM_MODE_FUNC environment variable:
               1=functional simulation only, 0=detailed performance simulator)
GPGPU-Sim: Configuration options:

-network_mode                           1 # Interconnection network mode
-inter_config_file   config_fermi_islip.icnt # Interconnection network config file
-gpgpu_ptx_use_cuobjdump                    1 # Use cuobjdump to extract ptx and sass from binaries
-gpgpu_experimental_lib_support                    0 # Try to extract code from cuda libraries [Broken because of unknown cudaGetExportTable]
-gpgpu_ptx_convert_to_ptxplus                    0 # Convert SASS (native ISA) to ptxplus and run ptxplus
-gpgpu_ptx_force_max_capability                   20 # Force maximum compute capability
-gpgpu_ptx_inst_debug_to_file                    0 # Dump executed instructions' debug information to file
-gpgpu_ptx_inst_debug_file       inst_debug.txt # Executed instructions' debug output file
-gpgpu_ptx_inst_debug_thread_uid                    1 # Thread UID for executed instructions' debug output
-gpgpu_simd_model                       1 # 1 = post-dominator
-gpgpu_shader_core_pipeline              2048:32 # shader core pipeline config, i.e., {<nthread>:<warpsize>}
-gpgpu_tex_cache:l1  16:128:24,L:R:m:N:L,F:128:4,128:2 # per-shader L1 texture cache  (READ-ONLY) config  {<nsets>:<bsize>:<assoc>,<rep>:<wr>:<alloc>:<wr_alloc>,<mshr>:<N>:<merge>,<mq>:<rf>}
-gpgpu_const_cache:l1 128:64:2,L:R:f:N:L,A:2:64,4 # per-shader L1 constant memory cache  (READ-ONLY) config  {<nsets>:<bsize>:<assoc>,<rep>:<wr>:<alloc>:<wr_alloc>,<mshr>:<N>:<merge>,<mq>} 
-gpgpu_cache:il1     8:128:4,L:R:f:N:L,A:2:48,4 # shader L1 instruction cache config  {<nsets>:<bsize>:<assoc>,<rep>:<wr>:<alloc>:<wr_alloc>,<mshr>:<N>:<merge>,<mq>} 
-gpgpu_cache:dl1     64:128:6,L:L:m:N:H,A:128:8,8 # per-shader L1 data cache config  {<nsets>:<bsize>:<assoc>,<rep>:<wr>:<alloc>:<wr_alloc>,<mshr>:<N>:<merge>,<mq> | none}
-gpgpu_cache:dl1PrefL1                 none # per-shader L1 data cache config  {<nsets>:<bsize>:<assoc>,<rep>:<wr>:<alloc>:<wr_alloc>,<mshr>:<N>:<merge>,<mq> | none}
-gpgpu_cache:dl1PrefShared                 none # per-shader L1 data cache config  {<nsets>:<bsize>:<assoc>,<rep>:<wr>:<alloc>:<wr_alloc>,<mshr>:<N>:<merge>,<mq> | none}
-gmem_skip_L1D                          1 # global memory access skip L1D cache (implements -Xptxas -dlcm=cg, default=no skip)
-gpgpu_perfect_mem                      0 # enable perfect memory mode (no cache miss)
-n_regfile_gating_group                    4 # group of lanes that should be read/written together)
-gpgpu_clock_gated_reg_file                    0 # enable clock gated reg file for power calculations
-gpgpu_clock_gated_lanes                    0 # enable clock gated lanes for power calculations
-gpgpu_shader_registers                65536 # Number of registers per shader core. Limits number of concurrent CTAs. (default 8192)
-gpgpu_shader_cta                      32 # Maximum number of concurrent CTAs in shader (default 8)
-gpgpu_num_cta_barriers                   16 # Maximum number of named barriers per CTA (default 16)
-gpgpu_n_clusters                      28 # number of processing clusters
-gpgpu_n_cores_per_cluster                    1 # number of simd cores per cluster
-gpgpu_n_cluster_ejection_buffer_size                    8 # number of packets in ejection buffer
-gpgpu_n_ldst_response_buffer_size                    2 # number of response packets in ld/st unit ejection buffer
-gpgpu_shmem_size                   16384 # Size of shared memory per shader core (default 16kB)
-gpgpu_shmem_size                   98304 # Size of shared memory per shader core (default 16kB)
-gpgpu_shmem_size_PrefL1                16384 # Size of shared memory per shader core (default 16kB)
-gpgpu_shmem_size_PrefShared                16384 # Size of shared memory per shader core (default 16kB)
-gpgpu_shmem_num_banks                   32 # Number of banks in the shared memory in each shader core (default 16)
-gpgpu_shmem_limited_broadcast                    0 # Limit shared memory to do one broadcast per cycle (default on)
-gpgpu_shmem_warp_parts                    1 # Number of portions a warp is divided into for shared memory bank conflict check 
-gpgpu_warpdistro_shader                   -1 # Specify which shader core to collect the warp size distribution from
-gpgpu_warp_issue_shader                    0 # Specify which shader core to collect the warp issue distribution from
-gpgpu_local_mem_map                    1 # Mapping from local memory space address to simulated GPU physical address space (default = enabled)
-gpgpu_num_reg_banks                   32 # Number of register banks (default = 8)
-gpgpu_reg_bank_use_warp_id                    0 # Use warp ID in mapping registers to banks (default = off)
-gpgpu_operand_collector_num_units_sp                   20 # number of collector units (default = 4)
-gpgpu_operand_collector_num_units_sfu                    4 # number of collector units (default = 4)
-gpgpu_operand_collector_num_units_mem                    8 # number of collector units (default = 2)
-gpgpu_operand_collector_num_units_gen                    0 # number of collector units (default = 0)
-gpgpu_operand_collector_num_in_ports_sp                    4 # number of collector unit in ports (default = 1)
-gpgpu_operand_collector_num_in_ports_sfu                    1 # number of collector unit in ports (default = 1)
-gpgpu_operand_collector_num_in_ports_mem                    1 # number of collector unit in ports (default = 1)
-gpgpu_operand_collector_num_in_ports_gen                    0 # number of collector unit in ports (default = 0)
-gpgpu_operand_collector_num_out_ports_sp                    4 # number of collector unit in ports (default = 1)
-gpgpu_operand_collector_num_out_ports_sfu                    1 # number of collector unit in ports (default = 1)
-gpgpu_operand_collector_num_out_ports_mem                    1 # number of collector unit in ports (default = 1)
-gpgpu_operand_collector_num_out_ports_gen                    0 # number of collector unit in ports (default = 0)
-gpgpu_coalesce_arch                   13 # Coalescing arch (default = 13, anything else is off for now)
-gpgpu_num_sched_per_core                    2 # Number of warp schedulers per core
-gpgpu_max_insn_issue_per_warp                    2 # Max number of instructions that can be issued per warp in one cycle by scheduler
-gpgpu_simt_core_sim_order                    1 # Select the simulation order of cores in a cluster (0=Fix, 1=Round-Robin)
-gpgpu_pipeline_widths        4,1,1,4,1,1,6 # Pipeline widths ID_OC_SP,ID_OC_SFU,ID_OC_MEM,OC_EX_SP,OC_EX_SFU,OC_EX_MEM,EX_WB
-gpgpu_num_sp_units                     4 # Number of SP units (default=1)
-gpgpu_num_sfu_units                    1 # Number of SF units (default=1)
-gpgpu_num_mem_units                    1 # Number if ldst units (default=1) WARNING: not hooked up to anything
-gpgpu_scheduler                      gto # Scheduler configuration: < lrr | gto | two_level_active > If two_level_active:<num_active_warps>:<inner_prioritization>:<outer_prioritization>For complete list of prioritization values see shader.h enum scheduler_prioritization_typeDefault: gto
-gpgpu_concurrent_kernel_sm                    0 # Support concurrent kernels on a SM (default = disabled)
-tlb_size                            4096 # Number of tlb entries per SM.
-gpgpu_dram_scheduler                    1 # 0 = fifo, 1 = FR-FCFS (defaul)
-gpgpu_dram_partition_queues              8:8:8:8 # i2$:$2d:d2$:$2i
-l2_ideal                               0 # Use a ideal L2 cache that always hit
-gpgpu_cache:dl2     64:128:16,L:B:m:W:L,A:1024:1024,4:0,32 # unified banked L2 data cache config  {<nsets>:<bsize>:<assoc>,<rep>:<wr>:<alloc>:<wr_alloc>,<mshr>:<N>:<merge>,<mq>}
-gpgpu_cache:dl2_texture_only                    0 # L2 cache used for texture only
-gpgpu_n_mem                           11 # number of memory modules (e.g. memory controllers) in gpu
-gpgpu_n_sub_partition_per_mchannel                    2 # number of memory subpartition in each memory module
-gpgpu_n_mem_per_ctrlr                    1 # number of memory chips per memory controller
-gpgpu_memlatency_stat                   14 # track and display latency statistics 0x2 enables MC, 0x4 enables queue logs
-gpgpu_frfcfs_dram_sched_queue_size                   64 # 0 = unlimited (default); # entries per chip
-gpgpu_dram_return_queue_size                  116 # 0 = unlimited (default); # entries per chip
-gpgpu_dram_buswidth                    4 # default = 4 bytes (8 bytes per cycle at DDR)
-gpgpu_dram_burst_length                    8 # Burst length of each DRAM request (default = 4 data bus cycle)
-dram_data_command_freq_ratio                    4 # Frequency ratio between DRAM data bus and command bus (default = 2 times, i.e. DDR)
-gpgpu_dram_timing_opt nbk=16:CCD=2:RRD=6:RCD=12:RAS=28:RP=12:RC=40: CL=12:WL=4:CDLR=5:WR=12:nbkgrp=1:CCDL=0:RTPL=0 # DRAM timing parameters = {nbk:tCCD:tRRD:tRCD:tRAS:tRP:tRC:CL:WL:tCDLR:tWR:nbkgrp:tCCDL:tRTPL}
-rop_latency                          120 # ROP queue latency (default 85)
-dram_latency                         100 # DRAM latency (default 30)
-gpgpu_mem_addr_mapping dramid@8;00000000.00000000.00000000.00000000.0000RRRR.RRRRRRRR.RBBBCCCC.BCCSSSSS # mapping memory address to dram model {dramid@<start bit>;<memory address map>}
-gpgpu_mem_addr_test                    0 # run sweep test to check address mapping for aliased address
-gpgpu_mem_address_mask                    1 # 0 = old addressing mask, 1 = new addressing mask, 2 = new add. mask + flipped bank sel and chip sel bits
-gpuwattch_xml_file  gpuwattch_geforcegtx1080ti.xml # GPUWattch XML file
-power_simulation_enabled                    1 # Turn on power simulator (1=On, 0=Off)
-power_per_cycle_dump                    0 # Dump detailed power output each cycle
-power_trace_enabled                    0 # produce a file for the power trace (1=On, 0=Off)
-power_trace_zlevel                     6 # Compression level of the power trace output log (0=no comp, 9=highest)
-steady_power_levels_enabled                    0 # produce a file for the steady power levels (1=On, 0=Off)
-steady_state_definition                  8:4 # allowed deviation:number of samples
-gpgpu_max_cycle                        0 # terminates gpu simulation early (0 = no limit)
-gpgpu_max_insn                         0 # terminates gpu simulation early (0 = no limit)
-gpgpu_max_cta                          0 # terminates gpu simulation early (0 = no limit)
-gpgpu_runtime_stat                   500 # display runtime statistics such as dram utilization {<freq>:<flag>}
-liveness_message_freq                    1 # Minimum number of seconds between simulation liveness messages (0 = always print)
-gpgpu_flush_l1_cache                    0 # Flush L1 cache at the end of each kernel call
-gpgpu_flush_l2_cache                    0 # Flush L2 cache at the end of each kernel call
-gpgpu_deadlock_detect                    0 # Stop the simulation at deadlock (1=on (default), 0=off)
-gpgpu_ptx_instruction_classification                    0 # if enabled will classify ptx instruction types per kernel (Max 255 kernels now)
-gpgpu_ptx_sim_mode                     0 # Select between Performance (default) or Functional simulation (1)
-gpgpu_clock_domains 1481.0:2962.0:1481.0:2750.0 # Clock Domain Frequencies in MhZ {<Core Clock>:<ICNT Clock>:<L2 Clock>:<DRAM Clock>}
-gpgpu_max_concurrent_kernel                    8 # maximum kernels that can run concurrently on GPU
-gpgpu_cflog_interval                    0 # Interval between each snapshot in control flow logger
-visualizer_enabled                     0 # Turn on visualizer output (1=On, 0=Off)
-visualizer_outputfile                 NULL # Specifies the output log file for visualizer
-visualizer_zlevel                      6 # Compression level of the visualizer output log (0=no comp, 9=highest)
-trace_enabled                          0 # Turn on traces
-trace_components                    none # comma seperated list of traces to enable. Complete list found in trace_streams.tup. Default none
-trace_sampling_core                    0 # The core which is printed using CORE_DPRINTF. Default 0
-trace_sampling_memory_partition                   -1 # The memory partition which is printed using MEMPART_DPRINTF. Default -1 (i.e. all)
-gddr_size                            1GB # Size of GDDR in MB/GB.(GLOBAL_HEAP_START, GLOBAL_HEAP_START + gddr_size) would be used for unmanged memory, (GLOBAL_HEAP_START + gddr_size, GLOBAL_HEAP_START + gddr_size*2) would be used for managed memory. 
-page_table_walk_latency                  100 # Average page table walk latency (in core cycle).
-eviction_policy                        0 # Select page eviction policy
-invalidate_clean                       0 # Should directly invalidate clean pages
-reserve_accessed_page_percent                    0 # Percentage of accessed pages reserved from eviction in hope that they will be accessed in next iteration.
-percentage_of_free_page_buffer                    0 # Percentage of free page buffer to trigger the page eviction.
-page_size                            4KB # GDDR page size, only 4KB/2MB avaliable.
-pcie_bandwidth                  16.0GB/s # PCI-e bandwidth per direction, in GB/s.
-enable_dma                             2 # Enable direct access to CPU memory
-multiply_dma_penalty                    2 # Oversubscription Multiplicative Penalty Factor for Adaptive DMA
-migrate_threshold                     32 # Access counter threshold for migrating the page from cpu to gpu
-sim_prof_enable                        1 # Enable gpgpu-sim profiler
-hardware_prefetch                      1 # Select gpgpu-sim hardware prefetcher
-hwprefetch_oversub                     1 # Select gpgpu-sim hardware prefetcher under over-subscription
-page_fault_latency                 66645 # Average fault latency (in core cycle).
-enable_accurate_simulation                    0 # Enable page fault functional simulation.
-enable_ptx_file_line_stats                    1 # Turn on PTX source line statistic profiling. (1 = On)
-ptx_line_stats_filename gpgpu_inst_stats.txt # Output file for PTX source line statistics.
-gpgpu_kernel_launch_latency               222150 # Kernel launch latency in cycles. Default: 0
-gpgpu_cdp_enabled                      0 # Turn on CDP
-save_embedded_ptx                      0 # saves ptx files embedded in binary as <n>.ptx
-keep                                   0 # keep intermediate files created by GPGPU-Sim when interfacing with external programs
-gpgpu_ptx_save_converted_ptxplus                    0 # Saved converted ptxplus to a file
-ptx_opcode_latency_int         4,13,4,5,145 # Opcode latencies for integers <ADD,MAX,MUL,MAD,DIV>Default 1,1,19,25,145
-ptx_opcode_latency_fp          4,13,4,5,39 # Opcode latencies for single precision floating points <ADD,MAX,MUL,MAD,DIV>Default 1,1,1,1,30
-ptx_opcode_latency_dp         8,19,8,8,330 # Opcode latencies for double precision floating points <ADD,MAX,MUL,MAD,DIV>Default 8,8,8,8,335
-ptx_opcode_initiation_int            1,2,2,2,8 # Opcode initiation intervals for integers <ADD,MAX,MUL,MAD,DIV>Default 1,1,4,4,32
-ptx_opcode_initiation_fp            1,2,1,1,4 # Opcode initiation intervals for single precision floating points <ADD,MAX,MUL,MAD,DIV>Default 1,1,1,1,5
-ptx_opcode_initiation_dp          1,2,1,1,130 # Opcode initiation intervals for double precision floating points <ADD,MAX,MUL,MAD,DIV>Default 8,8,8,8,130
-cdp_latency         7200,8000,100,12000,1600 # CDP API latency <cudaStreamCreateWithFlags, cudaGetParameterBufferV2_init_perWarp, cudaGetParameterBufferV2_perKernel, cudaLaunchDeviceV2_init_perWarp, cudaLaunchDevicV2_perKernel>Default 7200,8000,100,12000,1600
DRAM Timing Options:
nbk                                    16 # number of banks
CCD                                     2 # column to column delay
RRD                                     6 # minimal delay between activation of rows in different banks
RCD                                    12 # row to column delay
RAS                                    28 # time needed to activate row
RP                                     12 # time needed to precharge (deactivate) row
RC                                     40 # row cycle time
CDLR                                    5 # switching from write to read (changes tWTR)
WR                                     12 # last data-in to row precharge
CL                                     12 # CAS latency
WL                                      4 # Write latency
nbkgrp                                  1 # number of bank groups
CCDL                                    0 # column to column delay between accesses to different bank groups
RTPL                                    0 # read to precharge delay between accesses to different bank groups
Total number of memory sub partition = 22
addr_dec_mask[CHIP]  = 0000000000000000 	high:64 low:0
addr_dec_mask[BK]    = 0000000000007080 	high:15 low:7
addr_dec_mask[ROW]   = 000000000fff8000 	high:28 low:15
addr_dec_mask[COL]   = 0000000000000f7f 	high:12 low:0
addr_dec_mask[BURST] = 000000000000001f 	high:5 low:0
sub_partition_id_mask = 0000000000000080
GPGPU-Sim uArch: clock freqs: 1481000000.000000:2962000000.000000:1481000000.000000:2750000000.000000
GPGPU-Sim uArch: clock periods: 0.00000000067521944632:0.00000000033760972316:0.00000000067521944632:0.00000000036363636364
*** Initializing Memory Statistics ***
GPGPU-Sim uArch: interconnect node map (shaderID+MemID to icntID)
GPGPU-Sim uArch: Memory nodes ID start from index: 28
GPGPU-Sim uArch:    0   1   2   3   4   5   6
GPGPU-Sim uArch:    7   8   9  10  11  12  13
GPGPU-Sim uArch:   14  15  16  17  18  19  20
GPGPU-Sim uArch:   21  22  23  24  25  26  27
GPGPU-Sim uArch:   28  29  30  31  32  33  34
GPGPU-Sim uArch:   35  36  37  38  39  40  41
GPGPU-Sim uArch:   42  43  44  45  46  47  48
GPGPU-Sim uArch:   49
GPGPU-Sim uArch: interconnect node reverse map (icntID to shaderID+MemID)
GPGPU-Sim uArch: Memory nodes start from ID: 28
GPGPU-Sim uArch:    0   1   2   3   4   5   6
GPGPU-Sim uArch:    7   8   9  10  11  12  13
GPGPU-Sim uArch:   14  15  16  17  18  19  20
GPGPU-Sim uArch:   21  22  23  24  25  26  27
GPGPU-Sim uArch:   28  29  30  31  32  33  34
GPGPU-Sim uArch:   35  36  37  38  39  40  41
GPGPU-Sim uArch:   42  43  44  45  46  47  48
GPGPU-Sim uArch:   49
c755b4e9e6a1118e2d736bdbb88f76f4  /root/gpgpu-sim_UVMSmart/benchmarks/Managed/hotspot/hotspot
GPGPU-Sim uArch: performance model initialization complete.
GPGPU-Sim PTX: __cudaRegisterFatBinary, fat_cubin_handle = 1, filename=default
self exe links to: /root/gpgpu-sim_UVMSmart/benchmarks/Managed/hotspot/hotspot
Running md5sum using "md5sum /root/gpgpu-sim_UVMSmart/benchmarks/Managed/hotspot/hotspot "
Parsing file _cuobjdump_complete_output_45qSBW
######### cuobjdump parser ########
## Adding new section ELF
Adding arch: sm_20
Adding identifier: default
## Adding new section ELF
Adding arch: sm_20
Adding identifier: default
## Adding new section PTX
Adding ptx filename: _cuobjdump_1.ptx
Adding arch: sm_20
Adding identifier: default
Done parsing!!!
GPGPU-Sim PTX: __cudaRegisterFunction _Z14calculate_tempiPfS_S_iiiiffffff : hostFun 0x0x401ae2, fat_cubin_handle = 1
GPGPU-Sim PTX: allocating shared region for "_Z14calculate_tempiPfS_S_iiiiffffff$__cuda_local_var_16165_39_non_const_temp_on_cuda" from 0x0 to 0x400 (shared memory space)
GPGPU-Sim PTX: allocating shared region for "_Z14calculate_tempiPfS_S_iiiiffffff$__cuda_local_var_16166_39_non_const_power_on_cuda" from 0x400 to 0x800 (shared memory space)
GPGPU-Sim PTX: allocating shared region for "_Z14calculate_tempiPfS_S_iiiiffffff$__cuda_local_var_16167_39_non_const_temp_t" from 0x800 to 0xc00 (shared memory space)
GPGPU-Sim PTX: instruction assembly for function '_Z14calculate_tempiPfS_S_iiiiffffff'...   done.
GPGPU-Sim PTX: finding reconvergence points for '_Z14calculate_tempiPfS_S_iiiiffffff'...
GPGPU-Sim PTX: Finding dominators for '_Z14calculate_tempiPfS_S_iiiiffffff'...
GPGPU-Sim PTX: Finding immediate dominators for '_Z14calculate_tempiPfS_S_iiiiffffff'...
GPGPU-Sim PTX: Finding postdominators for '_Z14calculate_tempiPfS_S_iiiiffffff'...
GPGPU-Sim PTX: Finding immediate postdominators for '_Z14calculate_tempiPfS_S_iiiiffffff'...
GPGPU-Sim PTX: pre-decoding instructions for '_Z14calculate_tempiPfS_S_iiiiffffff'...
GPGPU-Sim PTX: reconvergence points for _Z14calculate_tempiPfS_S_iiiiffffff...
GPGPU-Sim PTX:  1 (potential) branch divergence @  PC=0x118 (_1.ptx:82) @!%p7 bra BB0_2;
GPGPU-Sim PTX:    immediate post dominator      @  PC=0x1b8 (_1.ptx:106) bar.sync 0;
GPGPU-Sim PTX:  2 (potential) branch divergence @  PC=0x120 (_1.ptx:83) bra.uni BB0_1;
GPGPU-Sim PTX:    immediate post dominator      @  PC=0x128 (_1.ptx:86) mad.lo.s32 %r27, %r1, %r10, %r2;
GPGPU-Sim PTX:  3 (potential) branch divergence @  PC=0x1c8 (_1.ptx:108) @%p8 bra BB0_11;
GPGPU-Sim PTX:    immediate post dominator      @  PC=0x5b0 (_1.ptx:247) and.b16 %rs7, %rs8, 255;
GPGPU-Sim PTX:  4 (potential) branch divergence @  PC=0x338 (_1.ptx:157) @!%p15 bra BB0_7;
GPGPU-Sim PTX:    immediate post dominator      @  PC=0x538 (_1.ptx:226) bar.sync 0;
GPGPU-Sim PTX:  5 (potential) branch divergence @  PC=0x340 (_1.ptx:158) bra.uni BB0_5;
GPGPU-Sim PTX:    immediate post dominator      @  PC=0x348 (_1.ptx:161) setp.gt.s32%p16, %r23, %r6;
GPGPU-Sim PTX:  6 (potential) branch divergence @  PC=0x3d0 (_1.ptx:178) @%p28 bra BB0_7;
GPGPU-Sim PTX:    immediate post dominator      @  PC=0x538 (_1.ptx:226) bar.sync 0;
GPGPU-Sim PTX:  7 (potential) branch divergence @  PC=0x548 (_1.ptx:228) @%p31 bra BB0_11;
GPGPU-Sim PTX:    immediate post dominator      @  PC=0x5b0 (_1.ptx:247) and.b16 %rs7, %rs8, 255;
GPGPU-Sim PTX:  8 (potential) branch divergence @  PC=0x558 (_1.ptx:231) @%p32 bra BB0_10;
GPGPU-Sim PTX:    immediate post dominator      @  PC=0x590 (_1.ptx:241) bar.sync 0;
GPGPU-Sim PTX:  9 (potential) branch divergence @  PC=0x5a8 (_1.ptx:244) @%p33 bra BB0_4;
GPGPU-Sim PTX:    immediate post dominator      @  PC=0x5b0 (_1.ptx:247) and.b16 %rs7, %rs8, 255;
GPGPU-Sim PTX: 10 (potential) branch divergence @  PC=0x5c0 (_1.ptx:249) @%p34 bra BB0_13;
GPGPU-Sim PTX:    immediate post dominator      @  PC=0x620 (_1.ptx:264) ret;
GPGPU-Sim PTX: ... end of reconvergence points for _Z14calculate_tempiPfS_S_iiiiffffff
GPGPU-Sim PTX: ... done pre-decoding instructions for '_Z14calculate_tempiPfS_S_iiiiffffff'.
GPGPU-Sim PTX: finished parsing EMBEDDED .ptx file _1.ptx
Adding _cuobjdump_1.ptx with cubin handle 1
GPGPU-Sim PTX: extracting embedded .ptx to temporary file "_ptx_ETdOkm"
Running: cat _ptx_ETdOkm | sed 's/.version 1.5/.version 1.4/' | sed 's/, texmode_independent//' | sed 's/\(\.extern \.const\[1\] .b8 \w\+\)\[\]/\1\[1\]/' | sed 's/const\[.\]/const\[0\]/g' > _ptx2_oM7K3L
GPGPU-Sim PTX: generating ptxinfo using "$CUDA_INSTALL_PATH/bin/ptxas --gpu-name=sm_20 -v _ptx2_oM7K3L --output-file  /dev/null 2> _ptx_ETdOkminfo"
GPGPU-Sim PTX: Kernel '_Z14calculate_tempiPfS_S_iiiiffffff' : regs=34, lmem=0, smem=3072, cmem=120
GPGPU-Sim PTX: removing ptxinfo using "rm -f _ptx_ETdOkm _ptx2_oM7K3L _ptx_ETdOkminfo"
GPGPU-Sim PTX: loading globals with explicit initializers... 
GPGPU-Sim PTX: finished loading globals (0 bytes total).
GPGPU-Sim PTX: loading constants with explicit initializers...  done.
WG size of kernel = 16 X 16
pyramidHeight: 2
gridSize: [1024, 1024]
border:[2, 2]
blockGrid:[86, 86]
targetBlock:[12, 12]
Start computing the transient temperature

GPGPU-Sim PTX: cudaLaunch for 0x0x401ae2 (mode=performance simulation) on stream 0
GPGPU-Sim PTX: pushing kernel '_Z14calculate_tempiPfS_S_iiiiffffff' to stream 0, gridDim= (86,86,1) blockDim = (16,16,1) 
GPGPU-Sim uArch: Shader 1 bind to kernel 1 '_Z14calculate_tempiPfS_S_iiiiffffff'
GPGPU-Sim uArch: CTA/core = 7, limited by: regs
GPGPU-Sim uArch: Shader 2 bind to kernel 1 '_Z14calculate_tempiPfS_S_iiiiffffff'
GPGPU-Sim uArch: Shader 3 bind to kernel 1 '_Z14calculate_tempiPfS_S_iiiiffffff'
GPGPU-Sim uArch: Shader 4 bind to kernel 1 '_Z14calculate_tempiPfS_S_iiiiffffff'
GPGPU-Sim uArch: Shader 5 bind to kernel 1 '_Z14calculate_tempiPfS_S_iiiiffffff'
GPGPU-Sim uArch: Shader 6 bind to kernel 1 '_Z14calculate_tempiPfS_S_iiiiffffff'
GPGPU-Sim uArch: Shader 7 bind to kernel 1 '_Z14calculate_tempiPfS_S_iiiiffffff'
GPGPU-Sim uArch: Shader 8 bind to kernel 1 '_Z14calculate_tempiPfS_S_iiiiffffff'
GPGPU-Sim uArch: Shader 9 bind to kernel 1 '_Z14calculate_tempiPfS_S_iiiiffffff'
GPGPU-Sim uArch: Shader 10 bind to kernel 1 '_Z14calculate_tempiPfS_S_iiiiffffff'
GPGPU-Sim uArch: Shader 11 bind to kernel 1 '_Z14calculate_tempiPfS_S_iiiiffffff'
GPGPU-Sim uArch: Shader 12 bind to kernel 1 '_Z14calculate_tempiPfS_S_iiiiffffff'
GPGPU-Sim uArch: Shader 13 bind to kernel 1 '_Z14calculate_tempiPfS_S_iiiiffffff'
GPGPU-Sim uArch: Shader 14 bind to kernel 1 '_Z14calculate_tempiPfS_S_iiiiffffff'
GPGPU-Sim uArch: Shader 15 bind to kernel 1 '_Z14calculate_tempiPfS_S_iiiiffffff'
GPGPU-Sim uArch: Shader 16 bind to kernel 1 '_Z14calculate_tempiPfS_S_iiiiffffff'
GPGPU-Sim uArch: Shader 17 bind to kernel 1 '_Z14calculate_tempiPfS_S_iiiiffffff'
GPGPU-Sim uArch: Shader 18 bind to kernel 1 '_Z14calculate_tempiPfS_S_iiiiffffff'
GPGPU-Sim uArch: Shader 19 bind to kernel 1 '_Z14calculate_tempiPfS_S_iiiiffffff'
GPGPU-Sim uArch: Shader 20 bind to kernel 1 '_Z14calculate_tempiPfS_S_iiiiffffff'
GPGPU-Sim uArch: Shader 21 bind to kernel 1 '_Z14calculate_tempiPfS_S_iiiiffffff'
GPGPU-Sim uArch: Shader 22 bind to kernel 1 '_Z14calculate_tempiPfS_S_iiiiffffff'
GPGPU-Sim uArch: Shader 23 bind to kernel 1 '_Z14calculate_tempiPfS_S_iiiiffffff'
GPGPU-Sim uArch: Shader 24 bind to kernel 1 '_Z14calculate_tempiPfS_S_iiiiffffff'
GPGPU-Sim uArch: Shader 25 bind to kernel 1 '_Z14calculate_tempiPfS_S_iiiiffffff'
GPGPU-Sim uArch: Shader 26 bind to kernel 1 '_Z14calculate_tempiPfS_S_iiiiffffff'
GPGPU-Sim uArch: Shader 27 bind to kernel 1 '_Z14calculate_tempiPfS_S_iiiiffffff'
GPGPU-Sim uArch: Shader 0 bind to kernel 1 '_Z14calculate_tempiPfS_S_iiiiffffff'
GPGPU-Sim uArch: Shader 1 bind to kernel 1 '_Z14calculate_tempiPfS_S_iiiiffffff'
GPGPU-Sim uArch: Shader 2 bind to kernel 1 '_Z14calculate_tempiPfS_S_iiiiffffff'
GPGPU-Sim uArch: Shader 3 bind to kernel 1 '_Z14calculate_tempiPfS_S_iiiiffffff'
GPGPU-Sim uArch: Shader 4 bind to kernel 1 '_Z14calculate_tempiPfS_S_iiiiffffff'
GPGPU-Sim uArch: Shader 7 bind to kernel 1 '_Z14calculate_tempiPfS_S_iiiiffffff'
GPGPU-Sim uArch: Shader 13 bind to kernel 1 '_Z14calculate_tempiPfS_S_iiiiffffff'
GPGPU-Sim uArch: Shader 15 bind to kernel 1 '_Z14calculate_tempiPfS_S_iiiiffffff'
GPGPU-Sim uArch: Shader 17 bind to kernel 1 '_Z14calculate_tempiPfS_S_iiiiffffff'
GPGPU-Sim uArch: Shader 18 bind to kernel 1 '_Z14calculate_tempiPfS_S_iiiiffffff'
GPGPU-Sim uArch: Shader 21 bind to kernel 1 '_Z14calculate_tempiPfS_S_iiiiffffff'
GPGPU-Sim uArch: Shader 24 bind to kernel 1 '_Z14calculate_tempiPfS_S_iiiiffffff'
GPGPU-Sim uArch: Shader 25 bind to kernel 1 '_Z14calculate_tempiPfS_S_iiiiffffff'
GPGPU-Sim uArch: Shader 27 bind to kernel 1 '_Z14calculate_tempiPfS_S_iiiiffffff'
GPGPU-Sim uArch: Shader 0 bind to kernel 1 '_Z14calculate_tempiPfS_S_iiiiffffff'
GPGPU-Sim uArch: Shader 14 bind to kernel 1 '_Z14calculate_tempiPfS_S_iiiiffffff'
GPGPU-Sim uArch: Shader 15 bind to kernel 1 '_Z14calculate_tempiPfS_S_iiiiffffff'
GPGPU-Sim uArch: Shader 18 bind to kernel 1 '_Z14calculate_tempiPfS_S_iiiiffffff'
GPGPU-Sim uArch: Shader 22 bind to kernel 1 '_Z14calculate_tempiPfS_S_iiiiffffff'
GPGPU-Sim uArch: Shader 23 bind to kernel 1 '_Z14calculate_tempiPfS_S_iiiiffffff'
GPGPU-Sim uArch: Shader 27 bind to kernel 1 '_Z14calculate_tempiPfS_S_iiiiffffff'
GPGPU-Sim uArch: Shader 20 bind to kernel 1 '_Z14calculate_tempiPfS_S_iiiiffffff'
GPGPU-Sim uArch: Shader 24 bind to kernel 1 '_Z14calculate_tempiPfS_S_iiiiffffff'
GPGPU-Sim uArch: Shader 26 bind to kernel 1 '_Z14calculate_tempiPfS_S_iiiiffffff'
GPGPU-Sim uArch: Shader 5 bind to kernel 1 '_Z14calculate_tempiPfS_S_iiiiffffff'
GPGPU-Sim uArch: Shader 7 bind to kernel 1 '_Z14calculate_tempiPfS_S_iiiiffffff'
GPGPU-Sim uArch: Shader 8 bind to kernel 1 '_Z14calculate_tempiPfS_S_iiiiffffff'
GPGPU-Sim uArch: Shader 9 bind to kernel 1 '_Z14calculate_tempiPfS_S_iiiiffffff'
GPGPU-Sim uArch: Shader 11 bind to kernel 1 '_Z14calculate_tempiPfS_S_iiiiffffff'
GPGPU-Sim uArch: Shader 12 bind to kernel 1 '_Z14calculate_tempiPfS_S_iiiiffffff'
GPGPU-Sim uArch: Shader 13 bind to kernel 1 '_Z14calculate_tempiPfS_S_iiiiffffff'
GPGPU-Sim uArch: Shader 11 bind to kernel 1 '_Z14calculate_tempiPfS_S_iiiiffffff'
GPGPU-Sim uArch: Shader 12 bind to kernel 1 '_Z14calculate_tempiPfS_S_iiiiffffff'
GPGPU-Sim uArch: Shader 15 bind to kernel 1 '_Z14calculate_tempiPfS_S_iiiiffffff'
GPGPU-Sim uArch: Shader 16 bind to kernel 1 '_Z14calculate_tempiPfS_S_iiiiffffff'
GPGPU-Sim uArch: Shader 5 bind to kernel 1 '_Z14calculate_tempiPfS_S_iiiiffffff'
GPGPU-Sim uArch: Shader 7 bind to kernel 1 '_Z14calculate_tempiPfS_S_iiiiffffff'
GPGPU-Sim uArch: Shader 8 bind to kernel 1 '_Z14calculate_tempiPfS_S_iiiiffffff'
GPGPU-Sim uArch: Shader 9 bind to kernel 1 '_Z14calculate_tempiPfS_S_iiiiffffff'
GPGPU-Sim uArch: Shader 23 bind to kernel 1 '_Z14calculate_tempiPfS_S_iiiiffffff'
GPGPU-Sim uArch: Shader 1 bind to kernel 1 '_Z14calculate_tempiPfS_S_iiiiffffff'
GPGPU-Sim uArch: Shader 2 bind to kernel 1 '_Z14calculate_tempiPfS_S_iiiiffffff'
GPGPU-Sim uArch: Shader 3 bind to kernel 1 '_Z14calculate_tempiPfS_S_iiiiffffff'
GPGPU-Sim uArch: Shader 5 bind to kernel 1 '_Z14calculate_tempiPfS_S_iiiiffffff'
GPGPU-Sim uArch: Shader 6 bind to kernel 1 '_Z14calculate_tempiPfS_S_iiiiffffff'
GPGPU-Sim uArch: Shader 7 bind to kernel 1 '_Z14calculate_tempiPfS_S_iiiiffffff'
GPGPU-Sim uArch: Shader 10 bind to kernel 1 '_Z14calculate_tempiPfS_S_iiiiffffff'
GPGPU-Sim uArch: Shader 11 bind to kernel 1 '_Z14calculate_tempiPfS_S_iiiiffffff'
GPGPU-Sim uArch: Shader 12 bind to kernel 1 '_Z14calculate_tempiPfS_S_iiiiffffff'
GPGPU-Sim uArch: Shader 15 bind to kernel 1 '_Z14calculate_tempiPfS_S_iiiiffffff'
GPGPU-Sim uArch: Shader 16 bind to kernel 1 '_Z14calculate_tempiPfS_S_iiiiffffff'
GPGPU-Sim uArch: Shader 17 bind to kernel 1 '_Z14calculate_tempiPfS_S_iiiiffffff'
GPGPU-Sim uArch: Shader 20 bind to kernel 1 '_Z14calculate_tempiPfS_S_iiiiffffff'
GPGPU-Sim uArch: Shader 21 bind to kernel 1 '_Z14calculate_tempiPfS_S_iiiiffffff'
GPGPU-Sim uArch: Shader 24 bind to kernel 1 '_Z14calculate_tempiPfS_S_iiiiffffff'
GPGPU-Sim uArch: Shader 27 bind to kernel 1 '_Z14calculate_tempiPfS_S_iiiiffffff'
GPGPU-Sim uArch: Shader 0 bind to kernel 1 '_Z14calculate_tempiPfS_S_iiiiffffff'
GPGPU-Sim uArch: Shader 1 bind to kernel 1 '_Z14calculate_tempiPfS_S_iiiiffffff'
GPGPU-Sim uArch: Shader 2 bind to kernel 1 '_Z14calculate_tempiPfS_S_iiiiffffff'
GPGPU-Sim uArch: Shader 3 bind to kernel 1 '_Z14calculate_tempiPfS_S_iiiiffffff'
GPGPU-Sim uArch: Shader 4 bind to kernel 1 '_Z14calculate_tempiPfS_S_iiiiffffff'
GPGPU-Sim uArch: Shader 8 bind to kernel 1 '_Z14calculate_tempiPfS_S_iiiiffffff'
GPGPU-Sim uArch: Shader 9 bind to kernel 1 '_Z14calculate_tempiPfS_S_iiiiffffff'
GPGPU-Sim uArch: Shader 13 bind to kernel 1 '_Z14calculate_tempiPfS_S_iiiiffffff'
GPGPU-Sim uArch: Shader 14 bind to kernel 1 '_Z14calculate_tempiPfS_S_iiiiffffff'
GPGPU-Sim uArch: Shader 17 bind to kernel 1 '_Z14calculate_tempiPfS_S_iiiiffffff'
GPGPU-Sim uArch: Shader 18 bind to kernel 1 '_Z14calculate_tempiPfS_S_iiiiffffff'
GPGPU-Sim uArch: Shader 19 bind to kernel 1 '_Z14calculate_tempiPfS_S_iiiiffffff'
GPGPU-Sim uArch: Shader 20 bind to kernel 1 '_Z14calculate_tempiPfS_S_iiiiffffff'
GPGPU-Sim uArch: Shader 21 bind to kernel 1 '_Z14calculate_tempiPfS_S_iiiiffffff'
GPGPU-Sim uArch: Shader 22 bind to kernel 1 '_Z14calculate_tempiPfS_S_iiiiffffff'
GPGPU-Sim uArch: Shader 23 bind to kernel 1 '_Z14calculate_tempiPfS_S_iiiiffffff'
GPGPU-Sim uArch: Shader 24 bind to kernel 1 '_Z14calculate_tempiPfS_S_iiiiffffff'
GPGPU-Sim uArch: Shader 25 bind to kernel 1 '_Z14calculate_tempiPfS_S_iiiiffffff'
GPGPU-Sim uArch: Shader 26 bind to kernel 1 '_Z14calculate_tempiPfS_S_iiiiffffff'
GPGPU-Sim uArch: Shader 27 bind to kernel 1 '_Z14calculate_tempiPfS_S_iiiiffffff'
GPGPU-Sim uArch: Shader 0 bind to kernel 1 '_Z14calculate_tempiPfS_S_iiiiffffff'
GPGPU-Sim uArch: Shader 11 bind to kernel 1 '_Z14calculate_tempiPfS_S_iiiiffffff'
Destroy streams for kernel 1: size 0
kernel_name = _Z14calculate_tempiPfS_S_iiiiffffff 
kernel_launch_uid = 1 
gpu_sim_cycle = 1833543
gpu_sim_insn = 415466464
gpu_ipc =     226.5922
gpu_tot_sim_cycle = 2055693
gpu_tot_sim_insn = 415466464
gpu_tot_ipc =     202.1053
gpu_tot_issued_cta = 7396
max_total_param_size = 0
gpu_stall_dramfull = 64231
gpu_stall_icnt2sh    = 573432
partiton_reqs_in_parallel = 40273715
partiton_reqs_in_parallel_total    = 0
partiton_level_parallism =      21.9650
partiton_level_parallism_total  =      19.5913
partiton_reqs_in_parallel_util = 40273715
partiton_reqs_in_parallel_util_total    = 0
gpu_sim_cycle_parition_util = 1832700
gpu_tot_sim_cycle_parition_util    = 0
partiton_level_parallism_util =      21.9751
partiton_level_parallism_util_total  =      21.9751
partiton_replys_in_parallel = 456444
partiton_replys_in_parallel_total    = 0
L2_BW  =      23.5956 GB/Sec
L2_BW_total  =      21.0457 GB/Sec
gpu_total_sim_rate=165261

========= Core cache stats =========
L1I_cache:
	L1I_total_cache_accesses = 7740000
	L1I_total_cache_misses = 8688
	L1I_total_cache_miss_rate = 0.0011
	L1I_total_cache_pending_hits = 0
	L1I_total_cache_reservation_fails = 6846
L1D_cache:
	L1D_cache_core[0]: Access = 0, Miss = 0, Miss_rate = -nan, Pending_hits = 0, Reservation_fails = 0
	L1D_cache_core[1]: Access = 0, Miss = 0, Miss_rate = -nan, Pending_hits = 0, Reservation_fails = 0
	L1D_cache_core[2]: Access = 0, Miss = 0, Miss_rate = -nan, Pending_hits = 0, Reservation_fails = 0
	L1D_cache_core[3]: Access = 0, Miss = 0, Miss_rate = -nan, Pending_hits = 0, Reservation_fails = 0
	L1D_cache_core[4]: Access = 0, Miss = 0, Miss_rate = -nan, Pending_hits = 0, Reservation_fails = 0
	L1D_cache_core[5]: Access = 0, Miss = 0, Miss_rate = -nan, Pending_hits = 0, Reservation_fails = 0
	L1D_cache_core[6]: Access = 0, Miss = 0, Miss_rate = -nan, Pending_hits = 0, Reservation_fails = 0
	L1D_cache_core[7]: Access = 0, Miss = 0, Miss_rate = -nan, Pending_hits = 0, Reservation_fails = 0
	L1D_cache_core[8]: Access = 0, Miss = 0, Miss_rate = -nan, Pending_hits = 0, Reservation_fails = 0
	L1D_cache_core[9]: Access = 0, Miss = 0, Miss_rate = -nan, Pending_hits = 0, Reservation_fails = 0
	L1D_cache_core[10]: Access = 0, Miss = 0, Miss_rate = -nan, Pending_hits = 0, Reservation_fails = 0
	L1D_cache_core[11]: Access = 0, Miss = 0, Miss_rate = -nan, Pending_hits = 0, Reservation_fails = 0
	L1D_cache_core[12]: Access = 0, Miss = 0, Miss_rate = -nan, Pending_hits = 0, Reservation_fails = 0
	L1D_cache_core[13]: Access = 0, Miss = 0, Miss_rate = -nan, Pending_hits = 0, Reservation_fails = 0
	L1D_cache_core[14]: Access = 0, Miss = 0, Miss_rate = -nan, Pending_hits = 0, Reservation_fails = 0
	L1D_cache_core[15]: Access = 0, Miss = 0, Miss_rate = -nan, Pending_hits = 0, Reservation_fails = 0
	L1D_cache_core[16]: Access = 0, Miss = 0, Miss_rate = -nan, Pending_hits = 0, Reservation_fails = 0
	L1D_cache_core[17]: Access = 0, Miss = 0, Miss_rate = -nan, Pending_hits = 0, Reservation_fails = 0
	L1D_cache_core[18]: Access = 0, Miss = 0, Miss_rate = -nan, Pending_hits = 0, Reservation_fails = 0
	L1D_cache_core[19]: Access = 0, Miss = 0, Miss_rate = -nan, Pending_hits = 0, Reservation_fails = 0
	L1D_cache_core[20]: Access = 0, Miss = 0, Miss_rate = -nan, Pending_hits = 0, Reservation_fails = 0
	L1D_cache_core[21]: Access = 0, Miss = 0, Miss_rate = -nan, Pending_hits = 0, Reservation_fails = 0
	L1D_cache_core[22]: Access = 0, Miss = 0, Miss_rate = -nan, Pending_hits = 0, Reservation_fails = 0
	L1D_cache_core[23]: Access = 0, Miss = 0, Miss_rate = -nan, Pending_hits = 0, Reservation_fails = 0
	L1D_cache_core[24]: Access = 0, Miss = 0, Miss_rate = -nan, Pending_hits = 0, Reservation_fails = 0
	L1D_cache_core[25]: Access = 0, Miss = 0, Miss_rate = -nan, Pending_hits = 0, Reservation_fails = 0
	L1D_cache_core[26]: Access = 0, Miss = 0, Miss_rate = -nan, Pending_hits = 0, Reservation_fails = 0
	L1D_cache_core[27]: Access = 0, Miss = 0, Miss_rate = -nan, Pending_hits = 0, Reservation_fails = 0
	L1D_total_cache_accesses = 0
	L1D_total_cache_misses = 0
	L1D_total_cache_pending_hits = 0
	L1D_total_cache_reservation_fails = 0
	L1D_cache_data_port_util = 0.000
	L1D_cache_fill_port_util = 0.000
L1C_cache:
	L1C_total_cache_accesses = 769184
	L1C_total_cache_misses = 2195
	L1C_total_cache_miss_rate = 0.0029
	L1C_total_cache_pending_hits = 0
	L1C_total_cache_reservation_fails = 4886
L1T_cache:
	L1T_total_cache_accesses = 0
	L1T_total_cache_misses = 0
	L1T_total_cache_pending_hits = 0
	L1T_total_cache_reservation_fails = 0

Total_core_cache_stats:
	Total_core_cache_stats_breakdown[GLOBAL_ACC_R][HIT] = 0
	Total_core_cache_stats_breakdown[GLOBAL_ACC_R][HIT_RESERVED] = 0
	Total_core_cache_stats_breakdown[GLOBAL_ACC_R][MISS] = 0
	Total_core_cache_stats_breakdown[GLOBAL_ACC_R][RESERVATION_FAIL] = 0
	Total_core_cache_stats_breakdown[LOCAL_ACC_R][HIT] = 0
	Total_core_cache_stats_breakdown[LOCAL_ACC_R][HIT_RESERVED] = 0
	Total_core_cache_stats_breakdown[LOCAL_ACC_R][MISS] = 0
	Total_core_cache_stats_breakdown[LOCAL_ACC_R][RESERVATION_FAIL] = 0
	Total_core_cache_stats_breakdown[CONST_ACC_R][HIT] = 766989
	Total_core_cache_stats_breakdown[CONST_ACC_R][HIT_RESERVED] = 0
	Total_core_cache_stats_breakdown[CONST_ACC_R][MISS] = 2195
	Total_core_cache_stats_breakdown[CONST_ACC_R][RESERVATION_FAIL] = 4886
	Total_core_cache_stats_breakdown[TEXTURE_ACC_R][HIT] = 0
	Total_core_cache_stats_breakdown[TEXTURE_ACC_R][HIT_RESERVED] = 0
	Total_core_cache_stats_breakdown[TEXTURE_ACC_R][MISS] = 0
	Total_core_cache_stats_breakdown[TEXTURE_ACC_R][RESERVATION_FAIL] = 0
	Total_core_cache_stats_breakdown[GLOBAL_ACC_W][HIT] = 0
	Total_core_cache_stats_breakdown[GLOBAL_ACC_W][HIT_RESERVED] = 0
	Total_core_cache_stats_breakdown[GLOBAL_ACC_W][MISS] = 0
	Total_core_cache_stats_breakdown[GLOBAL_ACC_W][RESERVATION_FAIL] = 0
	Total_core_cache_stats_breakdown[LOCAL_ACC_W][HIT] = 0
	Total_core_cache_stats_breakdown[LOCAL_ACC_W][HIT_RESERVED] = 0
	Total_core_cache_stats_breakdown[LOCAL_ACC_W][MISS] = 0
	Total_core_cache_stats_breakdown[LOCAL_ACC_W][RESERVATION_FAIL] = 0
	Total_core_cache_stats_breakdown[L1_WRBK_ACC][HIT] = 0
	Total_core_cache_stats_breakdown[L1_WRBK_ACC][HIT_RESERVED] = 0
	Total_core_cache_stats_breakdown[L1_WRBK_ACC][MISS] = 0
	Total_core_cache_stats_breakdown[L1_WRBK_ACC][RESERVATION_FAIL] = 0
	Total_core_cache_stats_breakdown[L2_WRBK_ACC][HIT] = 0
	Total_core_cache_stats_breakdown[L2_WRBK_ACC][HIT_RESERVED] = 0
	Total_core_cache_stats_breakdown[L2_WRBK_ACC][MISS] = 0
	Total_core_cache_stats_breakdown[L2_WRBK_ACC][RESERVATION_FAIL] = 0
	Total_core_cache_stats_breakdown[INST_ACC_R][HIT] = 7731312
	Total_core_cache_stats_breakdown[INST_ACC_R][HIT_RESERVED] = 0
	Total_core_cache_stats_breakdown[INST_ACC_R][MISS] = 8688
	Total_core_cache_stats_breakdown[INST_ACC_R][RESERVATION_FAIL] = 6846
	Total_core_cache_stats_breakdown[L1_WR_ALLOC_R][HIT] = 0
	Total_core_cache_stats_breakdown[L1_WR_ALLOC_R][HIT_RESERVED] = 0
	Total_core_cache_stats_breakdown[L1_WR_ALLOC_R][MISS] = 0
	Total_core_cache_stats_breakdown[L1_WR_ALLOC_R][RESERVATION_FAIL] = 0
	Total_core_cache_stats_breakdown[L2_WR_ALLOC_R][HIT] = 0
	Total_core_cache_stats_breakdown[L2_WR_ALLOC_R][HIT_RESERVED] = 0
	Total_core_cache_stats_breakdown[L2_WR_ALLOC_R][MISS] = 0
	Total_core_cache_stats_breakdown[L2_WR_ALLOC_R][RESERVATION_FAIL] = 0
	Total_core_cache_stats_breakdown[CONST_ACC_R][TOTAL_ACCESS] = 769184
	Total_core_cache_stats_breakdown[INST_ACC_R][TOTAL_ACCESS] = 7740000
Shader 0 warp_id issue ditsribution:
warp_id:
0, 1, 2, 3, 4, 5, 6, 7, 8, 9, 10, 11, 12, 13, 14, 15, 16, 17, 18, 19, 20, 21, 22, 23, 24, 25, 26, 27, 28, 29, 30, 31, 32, 33, 34, 35, 36, 37, 38, 39, 40, 41, 42, 43, 44, 45, 46, 47, 48, 49, 50, 51, 52, 53, 54, 55, 
distro:
9974, 12586, 12604, 12556, 12602, 12556, 12591, 10081, 9735, 12283, 12298, 12128, 12153, 12120, 12156, 9751, 9491, 11967, 11995, 11808, 11842, 11816, 11839, 9509, 9319, 11650, 11676, 11495, 11533, 11500, 11530, 9258, 9315, 11650, 11676, 11640, 11672, 11640, 11671, 9326, 9316, 11636, 11667, 11476, 11523, 11483, 11513, 9246, 9301, 11632, 11663, 11471, 11511, 11460, 11508, 9247, 
gpgpu_n_tot_thrd_icount = 485326208
gpgpu_n_tot_w_icount = 15166444
gpgpu_n_stall_shd_mem = 397064
gpgpu_n_mem_read_local = 0
gpgpu_n_mem_write_local = 0
gpgpu_n_mem_read_global = 346456
gpgpu_n_mem_write_global = 109568
gpgpu_n_mem_texture = 0
gpgpu_n_mem_const = 56
gpgpu_n_load_insn  = 3720992
gpgpu_n_store_insn = 1048576
gpgpu_n_shmem_insn = 24940324
gpgpu_n_tex_insn = 0
gpgpu_n_const_mem_insn = 0
gpgpu_n_param_mem_insn = 24613888
gpgpu_n_shmem_bkconflict = 0
gpgpu_n_cache_bkconflict = 0
gpgpu_n_intrawarp_mshr_merge = 0
gpgpu_n_cmem_portconflict = 4886
gpgpu_stall_shd_mem[c_mem][bk_conf] = 4886
gpgpu_stall_shd_mem[c_mem][mshr_rc] = 0
gpgpu_stall_shd_mem[c_mem][icnt_rc] = 0
gpgpu_stall_shd_mem[c_mem][data_port_stall] = 0
gpgpu_stall_shd_mem[t_mem][mshr_rc] = 0
gpgpu_stall_shd_mem[t_mem][icnt_rc] = 0
gpgpu_stall_shd_mem[t_mem][data_port_stall] = 0
gpgpu_stall_shd_mem[s_mem][bk_conf] = 0
gpgpu_stall_shd_mem[gl_mem][bk_conf] = 0
gpgpu_stall_shd_mem[gl_mem][coal_stall] = 320451
gpgpu_stall_shd_mem[gl_mem][data_port_stall] = 0
gpgpu_stall_shd_mem[g_mem_ld][mshr_rc] = 0
gpgpu_stall_shd_mem[g_mem_ld][icnt_rc] = 71727
gpgpu_stall_shd_mem[g_mem_ld][wb_icnt_rc] = 0
gpgpu_stall_shd_mem[g_mem_ld][wb_rsrv_fail] = 0
gpgpu_stall_shd_mem[g_mem_st][mshr_rc] = 0
gpgpu_stall_shd_mem[g_mem_st][icnt_rc] = 0
gpgpu_stall_shd_mem[g_mem_st][wb_icnt_rc] = 0
gpgpu_stall_shd_mem[g_mem_st][wb_rsrv_fail] = 0
gpgpu_stall_shd_mem[l_mem_ld][mshr_rc] = 0
gpgpu_stall_shd_mem[l_mem_ld][icnt_rc] = 0
gpgpu_stall_shd_mem[l_mem_ld][wb_icnt_rc] = 0
gpgpu_stall_shd_mem[l_mem_ld][wb_rsrv_fail] = 0
gpgpu_stall_shd_mem[l_mem_st][mshr_rc] = 0
gpgpu_stall_shd_mem[l_mem_st][icnt_rc] = 0
gpgpu_stall_shd_mem[l_mem_ld][wb_icnt_rc] = 0
gpgpu_stall_shd_mem[l_mem_ld][wb_rsrv_fail] = 0
gpu_reg_bank_conflict_stalls = 0
Warp Occupancy Distribution:
Stall:536258	W0_Idle:42757270	W0_Scoreboard:46612160	W1:0	W2:0	W3:0	W4:0	W5:8500	W6:0	W7:0	W8:28160	W9:0	W10:25600	W11:0	W12:12958	W13:8500	W14:714000	W15:0	W16:0	W17:0	W18:0	W19:0	W20:0	W21:0	W22:0	W23:0	W24:3517792	W25:0	W26:25600	W27:0	W28:3287550	W29:0	W30:0	W31:0	W32:7537784
traffic_breakdown_coretomem[CONST_ACC_R] = 448 {8:56,}
traffic_breakdown_coretomem[GLOBAL_ACC_R] = 2771648 {8:346456,}
traffic_breakdown_coretomem[GLOBAL_ACC_W] = 7856128 {40:44032,72:44032,136:21504,}
traffic_breakdown_coretomem[INST_ACC_R] = 2912 {8:364,}
traffic_breakdown_memtocore[CONST_ACC_R] = 4032 {72:56,}
traffic_breakdown_memtocore[GLOBAL_ACC_R] = 28785856 {40:114576,72:114576,136:117304,}
traffic_breakdown_memtocore[GLOBAL_ACC_W] = 876544 {8:109568,}
traffic_breakdown_memtocore[INST_ACC_R] = 49504 {136:364,}
maxmrqlatency = 519 
maxdqlatency = 0 
maxmflatency = 242273 
averagemflatency = 5582 
max_icnt2mem_latency = 242128 
max_icnt2sh_latency = 2055692 
mrq_lat_table:110740 	6220 	6039 	11610 	12313 	11237 	9840 	10377 	9984 	7 	0 	0 	0 	0 	0 	0 	0 	0 	0 	0 	0 	0 	0 	0 	0 	0 	0 	0 	0 	0 	0 	0 	
dq_lat_table:0 	0 	0 	0 	0 	0 	0 	0 	0 	0 	0 	0 	0 	0 	0 	0 	0 	0 	0 	0 	0 	0 	0 	0 	0 	0 	0 	0 	0 	0 	0 	0 	
mf_lat_table:0 	0 	0 	0 	0 	0 	0 	279037 	126289 	2523 	115 	2293 	2360 	5621 	8319 	20771 	8609 	143 	0 	0 	0 	0 	0 	0 	0 	0 	0 	0 	0 	0 	0 	0 	
icnt2mem_lat_table:0 	0 	228542 	47592 	4300 	1332 	118310 	7793 	335 	16 	241 	2167 	2504 	5508 	8677 	20375 	8609 	143 	0 	0 	0 	0 	0 	0 	
icnt2sh_lat_table:0 	0 	109334 	147185 	82305 	7564 	124 	0 	0 	0 	0 	0 	0 	0 	0 	0 	0 	0 	12840 	14873 	81855 	0 	0 	0 	
mf_lat_pw_table:0 	0 	0 	0 	0 	0 	0 	384 	73 	6 	12 	35 	12 	16 	26 	31 	12 	1 	0 	0 	0 	0 	0 	0 	0 	0 	0 	0 	0 	0 	0 	0 	
maximum concurrent accesses to same row:
dram[0]:        69        70        69        70        64        66        69        70        69        70        69        70        68        66        69        70 
dram[1]:        69        70        69        70        66        66        69        70        69        70        69        70        68        65        69        70 
dram[2]:        69        70        69        70        65        67        69        70        69        70        69        69        66        65        69        70 
dram[3]:        69        70        69        70        64        65        69        70        69        70        68        70        64        66        69        70 
dram[4]:        69        70        69        70        64        68        69        70        69        70        68        70        66        65        69        70 
dram[5]:        69        70        69        70        65        66        69        70        69        70        68        70        67        69        69        70 
dram[6]:        69        70        69        70        66        66        69        70        69        70        69        70        69        66        69        70 
dram[7]:        69        70        69        70        65        65        69        70        69        70        69        70        66        66        69        70 
dram[8]:        69        70        69        70        65        66        69        70        69        70        69        69        65        66        69        70 
dram[9]:        69        70        69        70        64        68        69        70        69        70        69        68        64        65        69        70 
dram[10]:        69        70        69        70        65        67        69        70        69        70        69        70        67        66        69        70 
maximum service time to same row:
dram[0]:    254445    254408    253519    253377    379517    263168    389145    388953    383551    383531    382362    262492    254621    254573    252505    252314 
dram[1]:    254408    254044    253391    253411    379727    380037    385808    388912    383518    383382    255118    255431    254872    254918    252483    252318 
dram[2]:    254071    254410    253378    253587    379865    379967    388609    388839    383494    383591    254903    255028    254913    254963    251711    250906 
dram[3]:    254412    254397    253509    253473    379767    379633    388843    388726    383539    383446    255028    254929    254746    254750    252504    252254 
dram[4]:    254391    254444    253676    253765    379625    379051    388647    384529    383424    383376    254717    254922    254908    254865    252516    252304 
dram[5]:    254442    254404    253735    253721    379957    379515    385798    388751    383567    383570    254780    258553    254621    254579    252511    252310 
dram[6]:    254407    254047    253680    253709    379753    380101    385803    388957    383525    383429    382324    252632    254935    254951    252480    252312 
dram[7]:    252146    251533    253731    253980    379868    379507    388610    388846    383554    383304    263511    253449    254799    254845    251688    250900 
dram[8]:    254079    254415    253980    253857    379769    379867    388850    388732    383484    383479    253112    254838    254957    254957    252501    252252 
dram[9]:    254414    254405    254009    254137    379763    378995    388649    384531    383411    383257    244057    254526    254644    254581    252513    252304 
dram[10]:    254398    254455    253736    253722    380004    379602    385801    388760    383527    383401    254364    248180    254917    254871    252517    252305 
average row accesses per activate:
dram[0]: 13.050632 11.863636 10.410000 10.979167 10.663265  9.562500 11.132653 10.481133 10.082569  9.592920 10.563107  9.944954 11.040816 10.900000 12.831326 12.356322 
dram[1]: 13.179487 12.369047 11.010638 10.895833 12.220930 10.558824 11.760870 11.000000 10.669903 10.683168  9.601769 10.018518 12.235955 12.153846 14.445946 12.611765 
dram[2]: 12.800000 13.282051 11.444445 12.583333 11.655556 11.673913 11.806452 12.382023  9.899082 10.633663  9.990741 10.394231 12.764706 13.625000 13.185185 13.948052 
dram[3]: 13.324676 14.067568 11.031915 12.383721 11.117022 10.028302 12.177778 10.692307 11.515789 11.516129 10.198113 11.336843 15.083333 13.822784 14.093333 12.517647 
dram[4]: 13.000000 12.670732 11.148936 10.660000 10.642858 11.565217 11.354167 10.240741 10.959596 11.092784 10.860000 11.752688 12.916667 12.952381 12.702381 12.773809 
dram[5]: 12.691358 11.326087 10.350000 11.467391 10.048077  8.975000 10.801980 10.212963 10.485714  9.844037  9.845454 10.538462 10.514564 10.528846 12.102273 12.441860 
dram[6]: 12.691358 11.886364 11.239130 11.954545 11.202127 10.588235 11.880435 11.070000 11.060606  9.871560 11.092784 11.580646 12.651163 12.325843 14.013158 13.287500 
dram[7]: 11.793103 12.790123 11.444445 12.547619 11.000000 11.145833 12.976191 12.222222 10.442307 10.093458 11.489362 11.166667 12.022223 12.325843 13.782051 13.961039 
dram[8]: 14.250000 13.050000 11.772727 11.766666 10.274509  9.709091 11.447917 11.295918 11.763441 11.305264 11.113402 11.425532 13.696202 13.481482 12.939024 12.564706 
dram[9]: 12.703704 12.975000 11.117022 10.392157 10.440000 10.411765 11.364583 10.644231 11.381443 11.175258 11.112245 11.270833 12.670588 12.202248 12.255814 13.653846 
dram[10]: 11.793103 11.806818 11.271739 11.010417 10.490000 10.113208 10.880000 10.823529 10.666667 10.653465 10.533980 10.611650 10.712872 10.752475 12.430233 12.903614 
average row locality = 188367/16409 = 11.479493
number of total memory accesses made:
dram[0]:         0         0         0         0         0         0         0         0         0         0         0         0         0         0         0         0 
dram[1]:         0         0         0         0         0         0         0         0         0         0         0         0         0         0         0         0 
dram[2]:         0         0         0         0         0         0         0         0         0         0         0         0         0         0         0         0 
dram[3]:         0         0         0         0         0         0         0         0         0         0         0         0         0         0         0         0 
dram[4]:         0         0         0         0         0         0         0         0         0         0         0         0         0         0         0         0 
dram[5]:         0         0         0         0         0         0         0         0         0         0         0         0         0         0         0         0 
dram[6]:         0         0         0         0         0         0         0         0         0         0         0         0         0         0         0         0 
dram[7]:         0         0         0         0         0         0         0         0         0         0         0         0         0         0         0         0 
dram[8]:         0         0         0         0         0         0         0         0         0         0         0         0         0         0         0         0 
dram[9]:         0         0         0         0         0         0         0         0         0         0         0         0         0         0         0         0 
dram[10]:         0         0         0         0         0         0         0         0         0         0         0         0         0         0         0         0 
total accesses: 0
min_bank_accesses = 0!
min_chip_accesses = 0!
number of total read accesses:
dram[0]:       561       560       560       560       560       560       560       560       560       560       548       548       560       560       560       560 
dram[1]:       560       560       560       560       560       560       560       560       560       560       549       549       560       560       560       560 
dram[2]:       560       560       560       560       560       560       560       560       560       560       549       549       560       560       560       560 
dram[3]:       560       560       560       560       560       560       560       560       560       560       549       549       560       560       560       560 
dram[4]:       560       560       560       560       560       560       560       560       560       560       549       549       560       560       561       561 
dram[5]:       560       560       560       560       560       560       560       560       560       560       548       548       560       560       561       561 
dram[6]:       560       560       560       560       560       560       560       560       560       560       548       548       560       560       561       561 
dram[7]:       560       560       560       560       560       560       560       560       560       560       548       548       560       560       561       561 
dram[8]:       560       560       560       560       560       560       560       560       560       560       548       548       560       560       561       561 
dram[9]:       560       560       560       560       560       560       560       560       560       560       548       548       560       560       561       561 
dram[10]:       560       560       560       560       560       560       560       560       560       560       548       548       560       560       561       560 
total reads: 98318
bank skew: 561/548 = 1.02
chip skew: 8940/8937 = 1.00
number of total write accesses:
dram[0]:       470       484       481       494       485       511       531       551       539       524       540       536       522       530       505       515 
dram[1]:       468       479       475       486       491       517       522       540       539       519       536       533       529       546       509       512 
dram[2]:       464       476       470       497       489       514       538       542       519       514       530       532       525       530       508       514 
dram[3]:       466       481       477       505       485       503       536       552       534       511       532       528       526       532       497       504 
dram[4]:       467       479       488       506       483       504       530       546       525       516       537       544       525       528       506       512 
dram[5]:       468       482       475       495       485       517       531       543       541       513       535       548       523       535       504       509 
dram[6]:       468       486       474       492       493       520       533       547       535       516       528       529       528       537       504       502 
dram[7]:       466       476       470       494       496       510       530       540       526       520       532       524       522       537       514       514 
dram[8]:       466       484       476       499       488       508       539       547       534       514       530       526       522       532       500       507 
dram[9]:       469       478       485       500       484       502       531       547       544       524       541       534       517       526       493       504 
dram[10]:       466       479       477       497       489       512       528       544       528       516       537       545       522       526       508       511 
total reads: 90049
bank skew: 552/464 = 1.19
chip skew: 8218/8162 = 1.01
average mf latency per bank:
dram[0]:      11706     11219     15398     15497     16311     16079     14240     14012     11692     11468     10100     10227     14656     14695     13600     13750
dram[1]:      12237     12156     15718     15738     16369     16160     14407     14059     11551     11461     10625     10497     14658     14742     14169     13474
dram[2]:      12130     12066     16026     15686     16184     16056     14234     13802     11653     11389     10450     10065     15047     14943     14160     13797
dram[3]:      12236     11731     15853     15529     16575     16595     13903     13061     11663     11452     10049     10163     14930     14767     14194     13242
dram[4]:      12316     12180     15133     14630     16822     16789     13528     13222     11700     11472      9829      9455     14826     14748     13458     13286
dram[5]:      12493     12623     14909     14884     17058     16653     13379     13165     11826     11782      9268      9172     14887     14821     12919     12526
dram[6]:      12989     12115     15213     15179     17185     17027     13968     13996     11614     11257      9950     10133     14739     14971     13223     13221
dram[7]:      12343     12467     15366     15185     17074     17060     14999     14618     11405     11207     10335     10113     15359     15286     13617     13523
dram[8]:      12521     12070     15724     15454     16985     16787     14696     14218     11395     11522     10006     10203     15526     15191     14322     13453
dram[9]:      12441     12032     15392     15067     16404     16410     14363     13563     11752     11564     10115      9986     15224     15083     14004     13868
dram[10]:      11534     11534     15131     14964     16635     16054     14442     14115     11603     11318     10004      9954     14990     14786     13848     12937
maximum mf latency per bank:
dram[0]:     125700    125608    124470    124501    124507    124483    126269    126283    125708    125743    129179    129248    126382    126431    242262    242273
dram[1]:     125733    125485    124690    124345    124703    124623    126129    126131    125686    125736    129443    129448    126421    126585    242251    242222
dram[2]:     125591    125478    124751    124512    124623    124634    126205    126201    125681    125751    129516    129513    126400    126598    242253    242246
dram[3]:     125565    125522    124745    124384    124609    124603    126054    126054    125711    125733    129318    129368    126406    126546    242257    242233
dram[4]:     125424    125319    124609    124375    124567    124620    126044    125918    125713    125761    129363    129138    126412    126461    242243    242230
dram[5]:     125716    125600    124609    124515    124560    124508    125863    125776    125722    125732    129026    129114    126384    126435    242261    242242
dram[6]:     125695    125502    124541    124386    124519    124500    125670    125805    125694    125641    129452    129435    126419    126563    242260    242247
dram[7]:     125561    125473    124748    124560    124673    124578    126423    126311    125635    125733    129519    129497    126407    126538    242257    242240
dram[8]:     125604    125597    124778    124521    124562    124596    126306    126417    125718    125746    129424    129538    126418    126508    242234    242261
dram[9]:     125398    125358    124714    124347    124606    124619    126385    126403    125733    125740    129474    129243    126395    126503    242248    242234
dram[10]:     124041    124008    124659    124500    124597    124499    126385    126393    125703    125765    129307    129455    126399    126420    242270    242250
Memory Partition 0: 
Cache L2_bank_000:
MSHR contents

Cache L2_bank_001:
MSHR contents

In Dram Latency Queue (total = 0): 
DRAM[0]: 16 bks, busW=4 BL=8 CL=12, tRRD=2 tCCD=6, tRCD=12 tRAS=28 tRP=12 tRC=40
n_cmd=3404619 n_nop=3346536 n_act=1580 n_pre=1564 n_req=17155 n_rd=35748 n_write=19191 bw_util=0.03227
n_activity=194746 dram_eff=0.5642
bk0: 2244a 3384978i bk1: 2240a 3384140i bk2: 2240a 3382737i bk3: 2240a 3382238i bk4: 2240a 3383051i bk5: 2240a 3381821i bk6: 2240a 3382366i bk7: 2240a 3381309i bk8: 2240a 3381957i bk9: 2240a 3381497i bk10: 2192a 3382220i bk11: 2192a 3380866i bk12: 2240a 3382547i bk13: 2240a 3381394i bk14: 2240a 3383637i bk15: 2240a 3382306i 
dram_util_bins: 0 0 0 0 0 0 0 0 0 0
dram_eff_bins: 0 0 0 0 0 0 0 0 0 0
mrqq: max=64 avg=0.357034
Memory Partition 1: 
Cache L2_bank_002:
MSHR contents

Cache L2_bank_003:
MSHR contents

In Dram Latency Queue (total = 0): 
DRAM[1]: 16 bks, busW=4 BL=8 CL=12, tRRD=2 tCCD=6, tRCD=12 tRAS=28 tRP=12 tRC=40
n_cmd=3404619 n_nop=3346706 n_act=1496 n_pre=1480 n_req=17139 n_rd=35752 n_write=19185 bw_util=0.03227
n_activity=194122 dram_eff=0.566
bk0: 2240a 3384776i bk1: 2240a 3384258i bk2: 2240a 3383676i bk3: 2240a 3382729i bk4: 2240a 3384034i bk5: 2240a 3382293i bk6: 2240a 3383057i bk7: 2240a 3382084i bk8: 2240a 3383173i bk9: 2240a 3381723i bk10: 2196a 3381895i bk11: 2196a 3381440i bk12: 2240a 3382326i bk13: 2240a 3380773i bk14: 2240a 3383994i bk15: 2240a 3382231i 
dram_util_bins: 0 0 0 0 0 0 0 0 0 0
dram_eff_bins: 0 0 0 0 0 0 0 0 0 0
mrqq: max=64 avg=0.352456
Memory Partition 2: 
Cache L2_bank_004:
MSHR contents

Cache L2_bank_005:
MSHR contents

In Dram Latency Queue (total = 0): 
DRAM[2]: 16 bks, busW=4 BL=8 CL=12, tRRD=2 tCCD=6, tRCD=12 tRAS=28 tRP=12 tRC=40
n_cmd=3404619 n_nop=3346858 n_act=1441 n_pre=1425 n_req=17100 n_rd=35752 n_write=19143 bw_util=0.03225
n_activity=194656 dram_eff=0.564
bk0: 2240a 3384991i bk1: 2240a 3383916i bk2: 2240a 3384488i bk3: 2240a 3383313i bk4: 2240a 3383699i bk5: 2240a 3382901i bk6: 2240a 3383227i bk7: 2240a 3382221i bk8: 2240a 3383034i bk9: 2240a 3383048i bk10: 2196a 3381864i bk11: 2196a 3382182i bk12: 2240a 3382690i bk13: 2240a 3382256i bk14: 2240a 3384090i bk15: 2240a 3383421i 
dram_util_bins: 0 0 0 0 0 0 0 0 0 0
dram_eff_bins: 0 0 0 0 0 0 0 0 0 0
mrqq: max=64 avg=0.349379
Memory Partition 3: 
Cache L2_bank_006:
MSHR contents

Cache L2_bank_007:
MSHR contents

In Dram Latency Queue (total = 0): 
DRAM[3]: 16 bks, busW=4 BL=8 CL=12, tRRD=2 tCCD=6, tRCD=12 tRAS=28 tRP=12 tRC=40
n_cmd=3404619 n_nop=3346901 n_act=1425 n_pre=1409 n_req=17107 n_rd=35752 n_write=19132 bw_util=0.03224
n_activity=195144 dram_eff=0.5625
bk0: 2240a 3385962i bk1: 2240a 3384605i bk2: 2240a 3383595i bk3: 2240a 3383137i bk4: 2240a 3383997i bk5: 2240a 3383083i bk6: 2240a 3382994i bk7: 2240a 3382292i bk8: 2240a 3383211i bk9: 2240a 3382572i bk10: 2196a 3382743i bk11: 2196a 3382724i bk12: 2240a 3383438i bk13: 2240a 3382547i bk14: 2240a 3384576i bk15: 2240a 3382639i 
dram_util_bins: 0 0 0 0 0 0 0 0 0 0
dram_eff_bins: 0 0 0 0 0 0 0 0 0 0
mrqq: max=64 avg=0.350006
Memory Partition 4: 
Cache L2_bank_008:
MSHR contents

Cache L2_bank_009:
MSHR contents

In Dram Latency Queue (total = 0): 
DRAM[4]: 16 bks, busW=4 BL=8 CL=12, tRRD=2 tCCD=6, tRCD=12 tRAS=28 tRP=12 tRC=40
n_cmd=3404619 n_nop=3346760 n_act=1474 n_pre=1458 n_req=17136 n_rd=35760 n_write=19167 bw_util=0.03227
n_activity=194477 dram_eff=0.5649
bk0: 2240a 3384650i bk1: 2240a 3384711i bk2: 2240a 3383909i bk3: 2240a 3382588i bk4: 2240a 3384139i bk5: 2240a 3383201i bk6: 2240a 3382814i bk7: 2240a 3381750i bk8: 2240a 3382634i bk9: 2240a 3381742i bk10: 2196a 3381597i bk11: 2196a 3381606i bk12: 2240a 3383449i bk13: 2240a 3381749i bk14: 2244a 3382819i bk15: 2244a 3383211i 
dram_util_bins: 0 0 0 0 0 0 0 0 0 0
dram_eff_bins: 0 0 0 0 0 0 0 0 0 0
mrqq: max=64 avg=0.355909
Memory Partition 5: 
Cache L2_bank_010:
MSHR contents

Cache L2_bank_011:
MSHR contents

In Dram Latency Queue (total = 0): 
DRAM[5]: 16 bks, busW=4 BL=8 CL=12, tRRD=2 tCCD=6, tRCD=12 tRAS=28 tRP=12 tRC=40
n_cmd=3404619 n_nop=3346503 n_act=1607 n_pre=1591 n_req=17142 n_rd=35752 n_write=19166 bw_util=0.03226
n_activity=194938 dram_eff=0.5634
bk0: 2240a 3384390i bk1: 2240a 3383166i bk2: 2240a 3383994i bk3: 2240a 3382063i bk4: 2240a 3383545i bk5: 2240a 3381768i bk6: 2240a 3382534i bk7: 2240a 3381686i bk8: 2240a 3382242i bk9: 2240a 3382107i bk10: 2192a 3382262i bk11: 2192a 3381889i bk12: 2240a 3381939i bk13: 2240a 3381323i bk14: 2244a 3382947i bk15: 2244a 3382442i 
dram_util_bins: 0 0 0 0 0 0 0 0 0 0
dram_eff_bins: 0 0 0 0 0 0 0 0 0 0
mrqq: max=64 avg=0.35039
Memory Partition 6: 
Cache L2_bank_012:
MSHR contents

Cache L2_bank_013:
MSHR contents

In Dram Latency Queue (total = 0): 
DRAM[6]: 16 bks, busW=4 BL=8 CL=12, tRRD=2 tCCD=6, tRCD=12 tRAS=28 tRP=12 tRC=40
n_cmd=3404619 n_nop=3346814 n_act=1466 n_pre=1450 n_req=17130 n_rd=35752 n_write=19137 bw_util=0.03224
n_activity=194239 dram_eff=0.5652
bk0: 2240a 3385423i bk1: 2240a 3384120i bk2: 2240a 3383531i bk3: 2240a 3383435i bk4: 2240a 3383804i bk5: 2240a 3381846i bk6: 2240a 3382520i bk7: 2240a 3381690i bk8: 2240a 3382419i bk9: 2240a 3382089i bk10: 2192a 3383080i bk11: 2192a 3381760i bk12: 2240a 3383055i bk13: 2240a 3381435i bk14: 2244a 3383653i bk15: 2244a 3382863i 
dram_util_bins: 0 0 0 0 0 0 0 0 0 0
dram_eff_bins: 0 0 0 0 0 0 0 0 0 0
mrqq: max=64 avg=0.34895
Memory Partition 7: 
Cache L2_bank_014:
MSHR contents

Cache L2_bank_015:
MSHR contents

In Dram Latency Queue (total = 0): 
DRAM[7]: 16 bks, busW=4 BL=8 CL=12, tRRD=2 tCCD=6, tRCD=12 tRAS=28 tRP=12 tRC=40
n_cmd=3404619 n_nop=3346886 n_act=1443 n_pre=1427 n_req=17109 n_rd=35752 n_write=19111 bw_util=0.03223
n_activity=194004 dram_eff=0.5656
bk0: 2240a 3384990i bk1: 2240a 3384090i bk2: 2240a 3383613i bk3: 2240a 3383528i bk4: 2240a 3383968i bk5: 2240a 3382458i bk6: 2240a 3383189i bk7: 2240a 3382546i bk8: 2240a 3382814i bk9: 2240a 3382353i bk10: 2192a 3381645i bk11: 2192a 3381450i bk12: 2240a 3381685i bk13: 2240a 3381718i bk14: 2244a 3383714i bk15: 2244a 3383905i 
dram_util_bins: 0 0 0 0 0 0 0 0 0 0
dram_eff_bins: 0 0 0 0 0 0 0 0 0 0
mrqq: max=64 avg=0.349326
Memory Partition 8: 
Cache L2_bank_016:
MSHR contents

Cache L2_bank_017:
MSHR contents

In Dram Latency Queue (total = 0): 
DRAM[8]: 16 bks, busW=4 BL=8 CL=12, tRRD=2 tCCD=6, tRCD=12 tRAS=28 tRP=12 tRC=40
n_cmd=3404619 n_nop=3346884 n_act=1442 n_pre=1426 n_req=17110 n_rd=35752 n_write=19115 bw_util=0.03223
n_activity=195217 dram_eff=0.5621
bk0: 2240a 3385269i bk1: 2240a 3384489i bk2: 2240a 3384010i bk3: 2240a 3382856i bk4: 2240a 3383726i bk5: 2240a 3382187i bk6: 2240a 3382484i bk7: 2240a 3382524i bk8: 2240a 3383021i bk9: 2240a 3382604i bk10: 2192a 3383024i bk11: 2192a 3381845i bk12: 2240a 3383792i bk13: 2240a 3382721i bk14: 2244a 3384234i bk15: 2244a 3383212i 
dram_util_bins: 0 0 0 0 0 0 0 0 0 0
dram_eff_bins: 0 0 0 0 0 0 0 0 0 0
mrqq: max=64 avg=0.347063
Memory Partition 9: 
Cache L2_bank_018:
MSHR contents

Cache L2_bank_019:
MSHR contents

In Dram Latency Queue (total = 0): 
DRAM[9]: 16 bks, busW=4 BL=8 CL=12, tRRD=2 tCCD=6, tRCD=12 tRAS=28 tRP=12 tRC=40
n_cmd=3404619 n_nop=3346786 n_act=1485 n_pre=1469 n_req=17117 n_rd=35752 n_write=19127 bw_util=0.03224
n_activity=195468 dram_eff=0.5615
bk0: 2240a 3385377i bk1: 2240a 3384995i bk2: 2240a 3384076i bk3: 2240a 3382602i bk4: 2240a 3384077i bk5: 2240a 3382595i bk6: 2240a 3383063i bk7: 2240a 3382073i bk8: 2240a 3382819i bk9: 2240a 3381980i bk10: 2192a 3382664i bk11: 2192a 3381953i bk12: 2240a 3383938i bk13: 2240a 3383117i bk14: 2244a 3383917i bk15: 2244a 3383997i 
dram_util_bins: 0 0 0 0 0 0 0 0 0 0
dram_eff_bins: 0 0 0 0 0 0 0 0 0 0
mrqq: max=64 avg=0.359049
Memory Partition 10: 
Cache L2_bank_020:
MSHR contents

Cache L2_bank_021:
MSHR contents

In Dram Latency Queue (total = 0): 
DRAM[10]: 16 bks, busW=4 BL=8 CL=12, tRRD=2 tCCD=6, tRCD=12 tRAS=28 tRP=12 tRC=40
n_cmd=3404619 n_nop=3346686 n_act=1551 n_pre=1535 n_req=17122 n_rd=35748 n_write=19099 bw_util=0.03222
n_activity=194326 dram_eff=0.5645
bk0: 2240a 3384765i bk1: 2240a 3383175i bk2: 2240a 3384055i bk3: 2240a 3382850i bk4: 2240a 3384013i bk5: 2240a 3382834i bk6: 2240a 3382581i bk7: 2240a 3381928i bk8: 2240a 3382621i bk9: 2240a 3381991i bk10: 2192a 3382273i bk11: 2192a 3382212i bk12: 2240a 3382737i bk13: 2240a 3381037i bk14: 2244a 3382516i bk15: 2240a 3382185i 
dram_util_bins: 0 0 0 0 0 0 0 0 0 0
dram_eff_bins: 0 0 0 0 0 0 0 0 0 0
mrqq: max=64 avg=0.362086

========= L2 cache stats =========
L2_cache_bank[0]: Access = 20620, Miss = 4469, Miss_rate = 0.217, Pending_hits = 6932, Reservation_fails = 4
L2_cache_bank[1]: Access = 20905, Miss = 4468, Miss_rate = 0.214, Pending_hits = 7110, Reservation_fails = 5
L2_cache_bank[2]: Access = 20570, Miss = 4469, Miss_rate = 0.217, Pending_hits = 6841, Reservation_fails = 8
L2_cache_bank[3]: Access = 20910, Miss = 4469, Miss_rate = 0.214, Pending_hits = 7090, Reservation_fails = 4
L2_cache_bank[4]: Access = 20562, Miss = 4469, Miss_rate = 0.217, Pending_hits = 6863, Reservation_fails = 1
L2_cache_bank[5]: Access = 20901, Miss = 4469, Miss_rate = 0.214, Pending_hits = 7015, Reservation_fails = 8
L2_cache_bank[6]: Access = 20556, Miss = 4469, Miss_rate = 0.217, Pending_hits = 6787, Reservation_fails = 4
L2_cache_bank[7]: Access = 20897, Miss = 4469, Miss_rate = 0.214, Pending_hits = 7024, Reservation_fails = 9
L2_cache_bank[8]: Access = 20582, Miss = 4470, Miss_rate = 0.217, Pending_hits = 6967, Reservation_fails = 4
L2_cache_bank[9]: Access = 20926, Miss = 4470, Miss_rate = 0.214, Pending_hits = 7053, Reservation_fails = 6
L2_cache_bank[10]: Access = 20583, Miss = 4469, Miss_rate = 0.217, Pending_hits = 6927, Reservation_fails = 4
L2_cache_bank[11]: Access = 20925, Miss = 4469, Miss_rate = 0.214, Pending_hits = 7060, Reservation_fails = 5
L2_cache_bank[12]: Access = 20590, Miss = 4469, Miss_rate = 0.217, Pending_hits = 6908, Reservation_fails = 3
L2_cache_bank[13]: Access = 20929, Miss = 4469, Miss_rate = 0.214, Pending_hits = 7087, Reservation_fails = 10
L2_cache_bank[14]: Access = 20586, Miss = 4469, Miss_rate = 0.217, Pending_hits = 6856, Reservation_fails = 3
L2_cache_bank[15]: Access = 20925, Miss = 4469, Miss_rate = 0.214, Pending_hits = 7051, Reservation_fails = 5
L2_cache_bank[16]: Access = 20580, Miss = 4469, Miss_rate = 0.217, Pending_hits = 6875, Reservation_fails = 6
L2_cache_bank[17]: Access = 20920, Miss = 4469, Miss_rate = 0.214, Pending_hits = 7087, Reservation_fails = 6
L2_cache_bank[18]: Access = 20578, Miss = 4469, Miss_rate = 0.217, Pending_hits = 6864, Reservation_fails = 6
L2_cache_bank[19]: Access = 20921, Miss = 4469, Miss_rate = 0.214, Pending_hits = 7022, Reservation_fails = 6
L2_cache_bank[20]: Access = 20581, Miss = 4469, Miss_rate = 0.217, Pending_hits = 6961, Reservation_fails = 6
L2_cache_bank[21]: Access = 20897, Miss = 4468, Miss_rate = 0.214, Pending_hits = 7035, Reservation_fails = 4
L2_total_cache_accesses = 456444
L2_total_cache_misses = 98318
L2_total_cache_miss_rate = 0.2154
L2_total_cache_pending_hits = 153415
L2_total_cache_reservation_fails = 117
L2_total_cache_breakdown:
	L2_cache_stats_breakdown[GLOBAL_ACC_R][HIT] = 171360
	L2_cache_stats_breakdown[GLOBAL_ACC_R][HIT_RESERVED] = 109560
	L2_cache_stats_breakdown[GLOBAL_ACC_R][MISS] = 65536
	L2_cache_stats_breakdown[GLOBAL_ACC_R][RESERVATION_FAIL] = 2
	L2_cache_stats_breakdown[LOCAL_ACC_R][HIT] = 0
	L2_cache_stats_breakdown[LOCAL_ACC_R][HIT_RESERVED] = 0
	L2_cache_stats_breakdown[LOCAL_ACC_R][MISS] = 0
	L2_cache_stats_breakdown[LOCAL_ACC_R][RESERVATION_FAIL] = 0
	L2_cache_stats_breakdown[CONST_ACC_R][HIT] = 28
	L2_cache_stats_breakdown[CONST_ACC_R][HIT_RESERVED] = 27
	L2_cache_stats_breakdown[CONST_ACC_R][MISS] = 1
	L2_cache_stats_breakdown[CONST_ACC_R][RESERVATION_FAIL] = 0
	L2_cache_stats_breakdown[TEXTURE_ACC_R][HIT] = 0
	L2_cache_stats_breakdown[TEXTURE_ACC_R][HIT_RESERVED] = 0
	L2_cache_stats_breakdown[TEXTURE_ACC_R][MISS] = 0
	L2_cache_stats_breakdown[TEXTURE_ACC_R][RESERVATION_FAIL] = 0
	L2_cache_stats_breakdown[GLOBAL_ACC_W][HIT] = 33313
	L2_cache_stats_breakdown[GLOBAL_ACC_W][HIT_RESERVED] = 43487
	L2_cache_stats_breakdown[GLOBAL_ACC_W][MISS] = 32768
	L2_cache_stats_breakdown[GLOBAL_ACC_W][RESERVATION_FAIL] = 115
	L2_cache_stats_breakdown[LOCAL_ACC_W][HIT] = 0
	L2_cache_stats_breakdown[LOCAL_ACC_W][HIT_RESERVED] = 0
	L2_cache_stats_breakdown[LOCAL_ACC_W][MISS] = 0
	L2_cache_stats_breakdown[LOCAL_ACC_W][RESERVATION_FAIL] = 0
	L2_cache_stats_breakdown[L1_WRBK_ACC][HIT] = 0
	L2_cache_stats_breakdown[L1_WRBK_ACC][HIT_RESERVED] = 0
	L2_cache_stats_breakdown[L1_WRBK_ACC][MISS] = 0
	L2_cache_stats_breakdown[L1_WRBK_ACC][RESERVATION_FAIL] = 0
	L2_cache_stats_breakdown[L2_WRBK_ACC][HIT] = 0
	L2_cache_stats_breakdown[L2_WRBK_ACC][HIT_RESERVED] = 0
	L2_cache_stats_breakdown[L2_WRBK_ACC][MISS] = 0
	L2_cache_stats_breakdown[L2_WRBK_ACC][RESERVATION_FAIL] = 0
	L2_cache_stats_breakdown[INST_ACC_R][HIT] = 10
	L2_cache_stats_breakdown[INST_ACC_R][HIT_RESERVED] = 341
	L2_cache_stats_breakdown[INST_ACC_R][MISS] = 13
	L2_cache_stats_breakdown[INST_ACC_R][RESERVATION_FAIL] = 0
	L2_cache_stats_breakdown[L1_WR_ALLOC_R][HIT] = 0
	L2_cache_stats_breakdown[L1_WR_ALLOC_R][HIT_RESERVED] = 0
	L2_cache_stats_breakdown[L1_WR_ALLOC_R][MISS] = 0
	L2_cache_stats_breakdown[L1_WR_ALLOC_R][RESERVATION_FAIL] = 0
	L2_cache_stats_breakdown[L2_WR_ALLOC_R][HIT] = 0
	L2_cache_stats_breakdown[L2_WR_ALLOC_R][HIT_RESERVED] = 0
	L2_cache_stats_breakdown[L2_WR_ALLOC_R][MISS] = 0
	L2_cache_stats_breakdown[L2_WR_ALLOC_R][RESERVATION_FAIL] = 0
	L2_cache_stats_breakdown[GLOBAL_ACC_R][TOTAL_ACCESS] = 346456
	L2_cache_stats_breakdown[CONST_ACC_R][TOTAL_ACCESS] = 56
	L2_cache_stats_breakdown[GLOBAL_ACC_W][TOTAL_ACCESS] = 109568
	L2_cache_stats_breakdown[INST_ACC_R][TOTAL_ACCESS] = 364
L2_cache_data_port_util = 0.012
L2_cache_fill_port_util = 0.010

icnt_total_pkts_mem_to_simt=1270956
icnt_total_pkts_simt_to_mem=674556
LD_mem_lat_dist  0 0 0 0 0 0 0 0 0 0 0 0 0 0 0 0 0 0 0 0 0 0 0 0 0 0 0
ST_mem_lat_dist  0 0 0 0 0 0 0 0 0 0 0 0 0 0 0 0 0 0 0 0 0 0 0 0 0 0 0
----------------------------Interconnect-DETAILS--------------------------------
Class 0:
Packet latency average = 16.669
	minimum = 6
	maximum = 802
Network latency average = 13.1622
	minimum = 6
	maximum = 782
Slowest packet = 705931
Flit latency average = 13.04
	minimum = 6
	maximum = 778
Slowest flit = 1507418
Fragmentation average = 0.00697347
	minimum = 0
	maximum = 763
Injected packet rate average = 0.00497882
	minimum = 0.00423197 (at node 12)
	maximum = 0.00570726 (at node 41)
Accepted packet rate average = 0.00497882
	minimum = 0.00423197 (at node 12)
	maximum = 0.00570726 (at node 41)
Injected flit rate average = 0.0106107
	minimum = 0.00637427 (at node 12)
	maximum = 0.0158818 (at node 37)
Accepted flit rate average= 0.0106107
	minimum = 0.00832078 (at node 34)
	maximum = 0.0125961 (at node 4)
Injected packet length average = 2.13116
Accepted packet length average = 2.13116
Total in-flight flits = 0 (0 measured)
====== Overall Traffic Statistics ======
====== Traffic class 0 ======
Packet latency average = 16.669 (1 samples)
	minimum = 6 (1 samples)
	maximum = 802 (1 samples)
Network latency average = 13.1622 (1 samples)
	minimum = 6 (1 samples)
	maximum = 782 (1 samples)
Flit latency average = 13.04 (1 samples)
	minimum = 6 (1 samples)
	maximum = 778 (1 samples)
Fragmentation average = 0.00697347 (1 samples)
	minimum = 0 (1 samples)
	maximum = 763 (1 samples)
Injected packet rate average = 0.00497882 (1 samples)
	minimum = 0.00423197 (1 samples)
	maximum = 0.00570726 (1 samples)
Accepted packet rate average = 0.00497882 (1 samples)
	minimum = 0.00423197 (1 samples)
	maximum = 0.00570726 (1 samples)
Injected flit rate average = 0.0106107 (1 samples)
	minimum = 0.00637427 (1 samples)
	maximum = 0.0158818 (1 samples)
Accepted flit rate average = 0.0106107 (1 samples)
	minimum = 0.00832078 (1 samples)
	maximum = 0.0125961 (1 samples)
Injected packet size average = 2.13116 (1 samples)
Accepted packet size average = 2.13116 (1 samples)
Hops average = 1 (1 samples)
----------------------------END-of-Interconnect-DETAILS-------------------------


gpgpu_simulation_time = 0 days, 0 hrs, 41 min, 54 sec (2514 sec)
gpgpu_simulation_rate = 165261 (inst/sec)
gpgpu_simulation_rate = 817 (cycle/sec)

GPGPU-Sim PTX: cudaLaunch for 0x0x401ae2 (mode=performance simulation) on stream 0
GPGPU-Sim PTX: pushing kernel '_Z14calculate_tempiPfS_S_iiiiffffff' to stream 0, gridDim= (86,86,1) blockDim = (16,16,1) 
GPGPU-Sim uArch: Shader 0 bind to kernel 2 '_Z14calculate_tempiPfS_S_iiiiffffff'
GPGPU-Sim uArch: Shader 1 bind to kernel 2 '_Z14calculate_tempiPfS_S_iiiiffffff'
GPGPU-Sim uArch: Shader 2 bind to kernel 2 '_Z14calculate_tempiPfS_S_iiiiffffff'
GPGPU-Sim uArch: Shader 3 bind to kernel 2 '_Z14calculate_tempiPfS_S_iiiiffffff'
GPGPU-Sim uArch: Shader 4 bind to kernel 2 '_Z14calculate_tempiPfS_S_iiiiffffff'
GPGPU-Sim uArch: Shader 5 bind to kernel 2 '_Z14calculate_tempiPfS_S_iiiiffffff'
GPGPU-Sim uArch: Shader 6 bind to kernel 2 '_Z14calculate_tempiPfS_S_iiiiffffff'
GPGPU-Sim uArch: Shader 7 bind to kernel 2 '_Z14calculate_tempiPfS_S_iiiiffffff'
GPGPU-Sim uArch: Shader 8 bind to kernel 2 '_Z14calculate_tempiPfS_S_iiiiffffff'
GPGPU-Sim uArch: Shader 9 bind to kernel 2 '_Z14calculate_tempiPfS_S_iiiiffffff'
GPGPU-Sim uArch: Shader 10 bind to kernel 2 '_Z14calculate_tempiPfS_S_iiiiffffff'
GPGPU-Sim uArch: Shader 11 bind to kernel 2 '_Z14calculate_tempiPfS_S_iiiiffffff'
GPGPU-Sim uArch: Shader 12 bind to kernel 2 '_Z14calculate_tempiPfS_S_iiiiffffff'
GPGPU-Sim uArch: Shader 13 bind to kernel 2 '_Z14calculate_tempiPfS_S_iiiiffffff'
GPGPU-Sim uArch: Shader 14 bind to kernel 2 '_Z14calculate_tempiPfS_S_iiiiffffff'
GPGPU-Sim uArch: Shader 15 bind to kernel 2 '_Z14calculate_tempiPfS_S_iiiiffffff'
GPGPU-Sim uArch: Shader 16 bind to kernel 2 '_Z14calculate_tempiPfS_S_iiiiffffff'
GPGPU-Sim uArch: Shader 17 bind to kernel 2 '_Z14calculate_tempiPfS_S_iiiiffffff'
GPGPU-Sim uArch: Shader 18 bind to kernel 2 '_Z14calculate_tempiPfS_S_iiiiffffff'
GPGPU-Sim uArch: Shader 19 bind to kernel 2 '_Z14calculate_tempiPfS_S_iiiiffffff'
GPGPU-Sim uArch: Shader 20 bind to kernel 2 '_Z14calculate_tempiPfS_S_iiiiffffff'
GPGPU-Sim uArch: Shader 21 bind to kernel 2 '_Z14calculate_tempiPfS_S_iiiiffffff'
GPGPU-Sim uArch: Shader 22 bind to kernel 2 '_Z14calculate_tempiPfS_S_iiiiffffff'
GPGPU-Sim uArch: Shader 23 bind to kernel 2 '_Z14calculate_tempiPfS_S_iiiiffffff'
GPGPU-Sim uArch: Shader 24 bind to kernel 2 '_Z14calculate_tempiPfS_S_iiiiffffff'
GPGPU-Sim uArch: Shader 25 bind to kernel 2 '_Z14calculate_tempiPfS_S_iiiiffffff'
GPGPU-Sim uArch: Shader 26 bind to kernel 2 '_Z14calculate_tempiPfS_S_iiiiffffff'
GPGPU-Sim uArch: Shader 27 bind to kernel 2 '_Z14calculate_tempiPfS_S_iiiiffffff'
Destroy streams for kernel 2: size 0

GPGPU-Sim PTX: cudaLaunch for 0x0x401ae2 (mode=performance simulation) on stream 0
GPGPU-Sim PTX: pushing kernel '_Z14calculate_tempiPfS_S_iiiiffffff' to stream 0, gridDim= (86,86,1) blockDim = (16,16,1) 
kernel_name = _Z14calculate_tempiPfS_S_iiiiffffff 
kernel_launch_uid = 2 
gpu_sim_cycle = 278819
gpu_sim_insn = 415466464
gpu_ipc =    1490.0938
gpu_tot_sim_cycle = 2556662
gpu_tot_sim_insn = 830932928
gpu_tot_ipc =     325.0070
gpu_tot_issued_cta = 14792
max_total_param_size = 0
gpu_stall_dramfull = 72685
gpu_stall_icnt2sh    = 807414
partiton_reqs_in_parallel = 6125564
partiton_reqs_in_parallel_total    = 40273715
partiton_level_parallism =      21.9697
partiton_level_parallism_total  =      18.1484
partiton_reqs_in_parallel_util = 6125564
partiton_reqs_in_parallel_util_total    = 40273715
gpu_sim_cycle_parition_util = 278755
gpu_tot_sim_cycle_parition_util    = 1832700
partiton_level_parallism_util =      21.9747
partiton_level_parallism_util_total  =      21.9750
partiton_replys_in_parallel = 456024
partiton_replys_in_parallel_total    = 456444
L2_BW  =     155.0245 GB/Sec
L2_BW_total  =      33.8282 GB/Sec
gpu_total_sim_rate=204814

========= Core cache stats =========
L1I_cache:
	L1I_total_cache_accesses = 15480000
	L1I_total_cache_misses = 8688
	L1I_total_cache_miss_rate = 0.0006
[...]
F:   690541----T:   690741 	 St: c0102300 Sz: 32 	 Sm: 0 	 T: dma(0.135044)
F:   690741----T:   690941 	 St: c01032c0 Sz: 64 	 Sm: 0 	 T: dma(0.135044)
F:   690941----T:   691141 	 St: c0103300 Sz: 32 	 Sm: 0 	 T: dma(0.135044)
F:   691141----T:   691341 	 St: c09020e0 Sz: 32 	 Sm: 0 	 T: dma(0.135044)
F:   691341----T:   691541 	 St: c0902100 Sz: 64 	 Sm: 0 	 T: dma(0.135044)
F:   691541----T:   691741 	 St: c09030e0 Sz: 32 	 Sm: 0 	 T: dma(0.135044)
F:   691741----T:   691941 	 St: c0903100 Sz: 64 	 Sm: 0 	 T: dma(0.135044)
F:   691941----T:   692141 	 St: c09060e0 Sz: 32 	 Sm: 0 	 T: dma(0.135044)
F:   692141----T:   692341 	 St: c0906100 Sz: 64 	 Sm: 0 	 T: dma(0.135044)
F:   692341----T:   692541 	 St: c09070e0 Sz: 32 	 Sm: 0 	 T: dma(0.135044)
F:   692541----T:   692741 	 St: c0907100 Sz: 64 	 Sm: 0 	 T: dma(0.135044)
F:   692741----T:   692941 	 St: c09062c0 Sz: 64 	 Sm: 0 	 T: dma(0.135044)
F:   692941----T:   693141 	 St: c0906300 Sz: 32 	 Sm: 0 	 T: dma(0.135044)
F:   693141----T:   693341 	 St: c09072c0 Sz: 64 	 Sm: 0 	 T: dma(0.135044)
F:   693341----T:   693541 	 St: c0907300 Sz: 32 	 Sm: 0 	 T: dma(0.135044)
F:   693541----T:   693741 	 St: c09022c0 Sz: 64 	 Sm: 0 	 T: dma(0.135044)
F:   693741----T:   693941 	 St: c0902300 Sz: 32 	 Sm: 0 	 T: dma(0.135044)
F:   693941----T:   694141 	 St: c09032c0 Sz: 64 	 Sm: 0 	 T: dma(0.135044)
F:   694141----T:   694341 	 St: c0903300 Sz: 32 	 Sm: 0 	 T: dma(0.135044)
F:   694341----T:   698982 	 St: c0100000 Sz: 28672 	 Sm: 0 	 T: memcpy_h2d(3.133693)
F:   698982----T:   817247 	 St: c0107000 Sz: 1019904 	 Sm: 0 	 T: memcpy_h2d(79.854828)
F:   817247----T:   817447 	 St: c0902300 Sz: 128 	 Sm: 0 	 T: dma(0.135044)
F:   817447----T:   817647 	 St: c0903300 Sz: 128 	 Sm: 0 	 T: dma(0.135044)
F:   817647----T:   817847 	 St: c0902280 Sz: 128 	 Sm: 0 	 T: dma(0.135044)
F:   817847----T:   818047 	 St: c0903280 Sz: 128 	 Sm: 0 	 T: dma(0.135044)
F:   818047----T:   821133 	 St: c0900000 Sz: 12288 	 Sm: 0 	 T: memcpy_h2d(2.083727)
F:   821133----T:   941281 	 St: c0903000 Sz: 1036288 	 Sm: 0 	 T: memcpy_h2d(81.126266)
F:   946578----T:   949664 	 St: c0500000 Sz: 12288 	 Sm: 0 	 T: memcpy_h2d(2.083727)
F:   949664----T:  1069812 	 St: c0503000 Sz: 1036288 	 Sm: 0 	 T: memcpy_h2d(81.126266)
F:  1129741----T:  1129941 	 St: c0202000 Sz: 64 	 Sm: 0 	 T: dma(0.135044)
F:  1129941----T:  1130141 	 St: c0203000 Sz: 64 	 Sm: 0 	 T: dma(0.135044)
F:  1130141----T:  1132746 	 St: c0200000 Sz: 4096 	 Sm: 0 	 T: memcpy_h2d(1.758947)
F:  1132746----T:  1132946 	 St: c0a02000 Sz: 64 	 Sm: 0 	 T: dma(0.135044)
F:  1132946----T:  1133146 	 St: c0a03000 Sz: 64 	 Sm: 0 	 T: dma(0.135044)
F:  1133146----T:  1133346 	 St: c0a02640 Sz: 64 	 Sm: 0 	 T: dma(0.135044)
F:  1133346----T:  1133546 	 St: c0a02680 Sz: 32 	 Sm: 0 	 T: dma(0.135044)
F:  1133546----T:  1133746 	 St: c0a03640 Sz: 64 	 Sm: 0 	 T: dma(0.135044)
F:  1133746----T:  1133946 	 St: c0a03680 Sz: 32 	 Sm: 0 	 T: dma(0.135044)
F:  1133946----T:  1134146 	 St: c0a026e0 Sz: 32 	 Sm: 0 	 T: dma(0.135044)
F:  1134146----T:  1134346 	 St: c0a02700 Sz: 64 	 Sm: 0 	 T: dma(0.135044)
F:  1134346----T:  1134546 	 St: c0a036e0 Sz: 32 	 Sm: 0 	 T: dma(0.135044)
F:  1134546----T:  1134746 	 St: c0a03700 Sz: 64 	 Sm: 0 	 T: dma(0.135044)
F:  1134746----T:  1142986 	 St: c0201000 Sz: 61440 	 Sm: 0 	 T: memcpy_h2d(5.563808)
F:  1143266----T:  1143466 	 St: c0a02000 Sz: 128 	 Sm: 0 	 T: dma(0.135044)
F:  1143466----T:  1143666 	 St: c0a03000 Sz: 128 	 Sm: 0 	 T: dma(0.135044)
F:  1143666----T:  1143866 	 St: c0a02600 Sz: 128 	 Sm: 0 	 T: dma(0.135044)
F:  1143866----T:  1144066 	 St: c0a02680 Sz: 128 	 Sm: 0 	 T: dma(0.135044)
F:  1144066----T:  1144266 	 St: c0a03600 Sz: 128 	 Sm: 0 	 T: dma(0.135044)
F:  1144266----T:  1144466 	 St: c02101c0 Sz: 64 	 Sm: 0 	 T: dma(0.135044)
F:  1144466----T:  1144666 	 St: c0210200 Sz: 32 	 Sm: 0 	 T: dma(0.135044)
F:  1144666----T:  1144866 	 St: c02111c0 Sz: 64 	 Sm: 0 	 T: dma(0.135044)
F:  1144866----T:  1145066 	 St: c0211200 Sz: 32 	 Sm: 0 	 T: dma(0.135044)
F:  1145066----T:  1145266 	 St: c0210040 Sz: 64 	 Sm: 0 	 T: dma(0.135044)
F:  1145266----T:  1145466 	 St: c0210080 Sz: 32 	 Sm: 0 	 T: dma(0.135044)
F:  1145466----T:  1145666 	 St: c0211040 Sz: 64 	 Sm: 0 	 T: dma(0.135044)
F:  1145666----T:  1145866 	 St: c0211080 Sz: 32 	 Sm: 0 	 T: dma(0.135044)
F:  1145866----T:  1146066 	 St: c0210180 Sz: 128 	 Sm: 0 	 T: dma(0.135044)
F:  1146066----T:  1146266 	 St: c0211180 Sz: 128 	 Sm: 0 	 T: dma(0.135044)
F:  1146266----T:  1146466 	 St: c0a101c0 Sz: 64 	 Sm: 0 	 T: dma(0.135044)
F:  1146466----T:  1146666 	 St: c0a10200 Sz: 32 	 Sm: 0 	 T: dma(0.135044)
F:  1146666----T:  1146866 	 St: c0a111c0 Sz: 64 	 Sm: 0 	 T: dma(0.135044)
F:  1146866----T:  1147066 	 St: c0a11200 Sz: 32 	 Sm: 0 	 T: dma(0.135044)
F:  1147066----T:  1147266 	 St: c0a10040 Sz: 64 	 Sm: 0 	 T: dma(0.135044)
F:  1147266----T:  1147466 	 St: c0a10080 Sz: 32 	 Sm: 0 	 T: dma(0.135044)
F:  1147466----T:  1147666 	 St: c0a11040 Sz: 64 	 Sm: 0 	 T: dma(0.135044)
F:  1147666----T:  1147866 	 St: c0a11080 Sz: 32 	 Sm: 0 	 T: dma(0.135044)
F:  1147866----T:  1148066 	 St: c0a10180 Sz: 128 	 Sm: 0 	 T: dma(0.135044)
F:  1148066----T:  1148266 	 St: c0a11180 Sz: 128 	 Sm: 0 	 T: dma(0.135044)
F:  1148266----T:  1151696 	 St: c0a00000 Sz: 16384 	 Sm: 0 	 T: memcpy_h2d(2.316003)
F:  1151696----T:  1158561 	 St: c0a04000 Sz: 49152 	 Sm: 0 	 T: memcpy_h2d(4.635382)
F:  1158561----T:  1161166 	 St: c0210000 Sz: 4096 	 Sm: 0 	 T: memcpy_h2d(1.758947)
F:  1161166----T:  1169406 	 St: c0211000 Sz: 61440 	 Sm: 0 	 T: memcpy_h2d(5.563808)
F:  1169406----T:  1172011 	 St: c0600000 Sz: 4096 	 Sm: 0 	 T: memcpy_h2d(1.758947)
F:  1172011----T:  1180251 	 St: c0601000 Sz: 61440 	 Sm: 0 	 T: memcpy_h2d(5.563808)
F:  1180251----T:  1182856 	 St: c0a10000 Sz: 4096 	 Sm: 0 	 T: memcpy_h2d(1.758947)
F:  1182856----T:  1191096 	 St: c0a11000 Sz: 61440 	 Sm: 0 	 T: memcpy_h2d(5.563808)
F:  1192288----T:  1192488 	 St: c0222140 Sz: 64 	 Sm: 0 	 T: dma(0.135044)
F:  1192488----T:  1192688 	 St: c0222180 Sz: 32 	 Sm: 0 	 T: dma(0.135044)
F:  1192688----T:  1192888 	 St: c0223140 Sz: 64 	 Sm: 0 	 T: dma(0.135044)
F:  1192888----T:  1193088 	 St: c0223180 Sz: 32 	 Sm: 0 	 T: dma(0.135044)
F:  1193088----T:  1193288 	 St: c0226140 Sz: 64 	 Sm: 0 	 T: dma(0.135044)
F:  1193288----T:  1193488 	 St: c0226180 Sz: 32 	 Sm: 0 	 T: dma(0.135044)
F:  1193488----T:  1193688 	 St: c0227140 Sz: 64 	 Sm: 0 	 T: dma(0.135044)
F:  1193688----T:  1193888 	 St: c0227180 Sz: 32 	 Sm: 0 	 T: dma(0.135044)
F:  1193888----T:  1194088 	 St: c0222080 Sz: 128 	 Sm: 0 	 T: dma(0.135044)
F:  1194088----T:  1194288 	 St: c0223080 Sz: 128 	 Sm: 0 	 T: dma(0.135044)
F:  1194288----T:  1194488 	 St: c0226080 Sz: 128 	 Sm: 0 	 T: dma(0.135044)
F:  1194488----T:  1194688 	 St: c0227080 Sz: 128 	 Sm: 0 	 T: dma(0.135044)
F:  1194688----T:  1194888 	 St: c0a22140 Sz: 64 	 Sm: 0 	 T: dma(0.135044)
F:  1194888----T:  1195088 	 St: c0a22180 Sz: 32 	 Sm: 0 	 T: dma(0.135044)
F:  1195088----T:  1195288 	 St: c0a23140 Sz: 64 	 Sm: 0 	 T: dma(0.135044)
F:  1195288----T:  1195488 	 St: c0a23180 Sz: 32 	 Sm: 0 	 T: dma(0.135044)
F:  1195488----T:  1195688 	 St: c0a26140 Sz: 64 	 Sm: 0 	 T: dma(0.135044)
F:  1195688----T:  1195888 	 St: c0a26180 Sz: 32 	 Sm: 0 	 T: dma(0.135044)
F:  1195888----T:  1196088 	 St: c0a27140 Sz: 64 	 Sm: 0 	 T: dma(0.135044)
F:  1196088----T:  1196288 	 St: c0a27180 Sz: 32 	 Sm: 0 	 T: dma(0.135044)
F:  1196288----T:  1196488 	 St: c0a22080 Sz: 128 	 Sm: 0 	 T: dma(0.135044)
F:  1196488----T:  1196688 	 St: c0a23080 Sz: 128 	 Sm: 0 	 T: dma(0.135044)
F:  1196688----T:  1196888 	 St: c0a26080 Sz: 128 	 Sm: 0 	 T: dma(0.135044)
F:  1196888----T:  1197088 	 St: c0a27080 Sz: 128 	 Sm: 0 	 T: dma(0.135044)
F:  1197088----T:  1200174 	 St: c0220000 Sz: 12288 	 Sm: 0 	 T: memcpy_h2d(2.083727)
F:  1200174----T:  1214932 	 St: c0223000 Sz: 118784 	 Sm: 0 	 T: memcpy_h2d(9.964889)
F:  1214932----T:  1217537 	 St: c0610000 Sz: 4096 	 Sm: 0 	 T: memcpy_h2d(1.758947)
F:  1217537----T:  1225777 	 St: c0611000 Sz: 61440 	 Sm: 0 	 T: memcpy_h2d(5.563808)
F:  1225777----T:  1228382 	 St: c0a20000 Sz: 4096 	 Sm: 0 	 T: memcpy_h2d(1.758947)
F:  1228382----T:  1244077 	 St: c0a21000 Sz: 126976 	 Sm: 0 	 T: memcpy_h2d(10.597569)
F:  1245704----T:  1245904 	 St: c0240040 Sz: 64 	 Sm: 0 	 T: dma(0.135044)
F:  1245904----T:  1246104 	 St: c0240080 Sz: 32 	 Sm: 0 	 T: dma(0.135044)
F:  1246104----T:  1246304 	 St: c0241040 Sz: 64 	 Sm: 0 	 T: dma(0.135044)
F:  1246304----T:  1246504 	 St: c0241080 Sz: 32 	 Sm: 0 	 T: dma(0.135044)
F:  1246504----T:  1246704 	 St: c0240140 Sz: 64 	 Sm: 0 	 T: dma(0.135044)
F:  1246704----T:  1246904 	 St: c0240180 Sz: 32 	 Sm: 0 	 T: dma(0.135044)
F:  1246904----T:  1247104 	 St: c0241140 Sz: 64 	 Sm: 0 	 T: dma(0.135044)
F:  1247104----T:  1247304 	 St: c0241180 Sz: 32 	 Sm: 0 	 T: dma(0.135044)
F:  1247304----T:  1247504 	 St: c0240100 Sz: 128 	 Sm: 0 	 T: dma(0.135044)
F:  1247504----T:  1247704 	 St: c0240000 Sz: 128 	 Sm: 0 	 T: dma(0.135044)
F:  1247704----T:  1247904 	 St: c0241100 Sz: 128 	 Sm: 0 	 T: dma(0.135044)
F:  1247904----T:  1248104 	 St: c0241000 Sz: 128 	 Sm: 0 	 T: dma(0.135044)
F:  1248104----T:  1248304 	 St: c0240000 Sz: 64 	 Sm: 0 	 T: dma(0.135044)
F:  1248304----T:  1248504 	 St: c0241000 Sz: 64 	 Sm: 0 	 T: dma(0.135044)
F:  1248504----T:  1248704 	 St: c0240080 Sz: 128 	 Sm: 0 	 T: dma(0.135044)
F:  1248704----T:  1248904 	 St: c0241080 Sz: 128 	 Sm: 0 	 T: dma(0.135044)
F:  1248904----T:  1249104 	 St: c0a40040 Sz: 64 	 Sm: 0 	 T: dma(0.135044)
F:  1249104----T:  1249304 	 St: c0a40080 Sz: 32 	 Sm: 0 	 T: dma(0.135044)
F:  1249304----T:  1249504 	 St: c0a41040 Sz: 64 	 Sm: 0 	 T: dma(0.135044)
F:  1249504----T:  1249704 	 St: c0a41080 Sz: 32 	 Sm: 0 	 T: dma(0.135044)
F:  1249704----T:  1249904 	 St: c0a40140 Sz: 64 	 Sm: 0 	 T: dma(0.135044)
F:  1249904----T:  1250104 	 St: c0a40180 Sz: 32 	 Sm: 0 	 T: dma(0.135044)
F:  1250104----T:  1250304 	 St: c0a41140 Sz: 64 	 Sm: 0 	 T: dma(0.135044)
F:  1250304----T:  1250504 	 St: c0a41180 Sz: 32 	 Sm: 0 	 T: dma(0.135044)
F:  1250504----T:  1250704 	 St: c0a40100 Sz: 128 	 Sm: 0 	 T: dma(0.135044)
F:  1250704----T:  1250904 	 St: c0a41100 Sz: 128 	 Sm: 0 	 T: dma(0.135044)
F:  1250904----T:  1251104 	 St: c0a40000 Sz: 128 	 Sm: 0 	 T: dma(0.135044)
F:  1251104----T:  1251304 	 St: c0a41000 Sz: 128 	 Sm: 0 	 T: dma(0.135044)
F:  1251304----T:  1251504 	 St: c0a40000 Sz: 64 	 Sm: 0 	 T: dma(0.135044)
F:  1251504----T:  1251704 	 St: c0a41000 Sz: 64 	 Sm: 0 	 T: dma(0.135044)
F:  1251704----T:  1251904 	 St: c0a40080 Sz: 128 	 Sm: 0 	 T: dma(0.135044)
F:  1251904----T:  1252104 	 St: c0a41080 Sz: 128 	 Sm: 0 	 T: dma(0.135044)
F:  1252104----T:  1254709 	 St: c0240000 Sz: 4096 	 Sm: 0 	 T: memcpy_h2d(1.758947)
F:  1254709----T:  1285432 	 St: c0241000 Sz: 258048 	 Sm: 0 	 T: memcpy_h2d(20.744766)
F:  1285432----T:  1288037 	 St: c0620000 Sz: 4096 	 Sm: 0 	 T: memcpy_h2d(1.758947)
F:  1288037----T:  1288237 	 St: c0a40180 Sz: 128 	 Sm: 0 	 T: dma(0.135044)
F:  1288237----T:  1288437 	 St: c0a40080 Sz: 128 	 Sm: 0 	 T: dma(0.135044)
F:  1288437----T:  1288637 	 St: c0a41180 Sz: 128 	 Sm: 0 	 T: dma(0.135044)
F:  1288637----T:  1288837 	 St: c0a41080 Sz: 128 	 Sm: 0 	 T: dma(0.135044)
F:  1288837----T:  1289037 	 St: c0a400e0 Sz: 32 	 Sm: 0 	 T: dma(0.135044)
F:  1289037----T:  1289237 	 St: c0a40100 Sz: 64 	 Sm: 0 	 T: dma(0.135044)
F:  1289237----T:  1289437 	 St: c0a410e0 Sz: 32 	 Sm: 0 	 T: dma(0.135044)
F:  1289437----T:  1289637 	 St: c0a40160 Sz: 32 	 Sm: 0 	 T: dma(0.135044)
F:  1289637----T:  1289837 	 St: c0a41100 Sz: 64 	 Sm: 0 	 T: dma(0.135044)
F:  1289837----T:  1290037 	 St: c0a40180 Sz: 64 	 Sm: 0 	 T: dma(0.135044)
F:  1290037----T:  1290237 	 St: c0a41160 Sz: 32 	 Sm: 0 	 T: dma(0.135044)
F:  1290237----T:  1290437 	 St: c0a41180 Sz: 64 	 Sm: 0 	 T: dma(0.135044)
F:  1290437----T:  1306132 	 St: c0621000 Sz: 126976 	 Sm: 0 	 T: memcpy_h2d(10.597569)
F:  1306132----T:  1308737 	 St: c0a40000 Sz: 4096 	 Sm: 0 	 T: memcpy_h2d(1.758947)
F:  1308737----T:  1339460 	 St: c0a41000 Sz: 258048 	 Sm: 0 	 T: memcpy_h2d(20.744766)
F:  1346836----T:  1349441 	 St: c0640000 Sz: 4096 	 Sm: 0 	 T: memcpy_h2d(1.758947)
F:  1349441----T:  1380164 	 St: c0641000 Sz: 258048 	 Sm: 0 	 T: memcpy_h2d(20.744766)
F:  1388750----T:  1391836 	 St: c0280000 Sz: 12288 	 Sm: 0 	 T: memcpy_h2d(2.083727)
F:  1391836----T:  1451731 	 St: c0283000 Sz: 512000 	 Sm: 0 	 T: memcpy_h2d(40.442268)
F:  1451731----T:  1454336 	 St: c0a80000 Sz: 4096 	 Sm: 0 	 T: memcpy_h2d(1.758947)
F:  1454336----T:  1515172 	 St: c0a81000 Sz: 520192 	 Sm: 0 	 T: memcpy_h2d(41.077652)
F:  1520770----T:  1523375 	 St: c0680000 Sz: 4096 	 Sm: 0 	 T: memcpy_h2d(1.758947)
F:  1523375----T:  1584211 	 St: c0681000 Sz: 520192 	 Sm: 0 	 T: memcpy_h2d(41.077652)
F:  1608309----T:  1608509 	 St: c03000e0 Sz: 32 	 Sm: 0 	 T: dma(0.135044)
F:  1608509----T:  1608709 	 St: c0300100 Sz: 64 	 Sm: 0 	 T: dma(0.135044)
F:  1608709----T:  1608909 	 St: c0300080 Sz: 128 	 Sm: 0 	 T: dma(0.135044)
F:  1608909----T:  1609109 	 St: c03010e0 Sz: 32 	 Sm: 0 	 T: dma(0.135044)
F:  1609109----T:  1609309 	 St: c0301080 Sz: 128 	 Sm: 0 	 T: dma(0.135044)
F:  1609309----T:  1609509 	 St: c0301100 Sz: 64 	 Sm: 0 	 T: dma(0.135044)
F:  1609509----T:  1612114 	 St: c0300000 Sz: 4096 	 Sm: 0 	 T: memcpy_h2d(1.758947)
F:  1612114----T:  1612314 	 St: c0b00080 Sz: 128 	 Sm: 0 	 T: dma(0.135044)
F:  1612314----T:  1612514 	 St: c0b01080 Sz: 128 	 Sm: 0 	 T: dma(0.135044)
F:  1612514----T:  1612714 	 St: c0b000e0 Sz: 32 	 Sm: 0 	 T: dma(0.135044)
F:  1612714----T:  1612914 	 St: c0b00100 Sz: 64 	 Sm: 0 	 T: dma(0.135044)
F:  1612914----T:  1613114 	 St: c0b010e0 Sz: 32 	 Sm: 0 	 T: dma(0.135044)
F:  1613114----T:  1613314 	 St: c0b01100 Sz: 64 	 Sm: 0 	 T: dma(0.135044)
F:  1613314----T:  1734403 	 St: c0301000 Sz: 1044480 	 Sm: 0 	 T: memcpy_h2d(81.761650)
F:  1734671----T:  1734871 	 St: c0b00080 Sz: 128 	 Sm: 0 	 T: dma(0.135044)
F:  1734871----T:  1735071 	 St: c0b01080 Sz: 128 	 Sm: 0 	 T: dma(0.135044)
F:  1735071----T:  1735271 	 St: c0b00100 Sz: 128 	 Sm: 0 	 T: dma(0.135044)
F:  1735271----T:  1735471 	 St: c0b01100 Sz: 128 	 Sm: 0 	 T: dma(0.135044)
F:  1735471----T:  1735671 	 St: c0b00100 Sz: 128 	 Sm: 0 	 T: dma(0.135044)
F:  1735671----T:  1735871 	 St: c0b01100 Sz: 128 	 Sm: 0 	 T: dma(0.135044)
F:  1735871----T:  1736071 	 St: c0b00080 Sz: 128 	 Sm: 0 	 T: dma(0.135044)
F:  1736071----T:  1736271 	 St: c0b01080 Sz: 128 	 Sm: 0 	 T: dma(0.135044)
F:  1736271----T:  1736471 	 St: c0b000e0 Sz: 32 	 Sm: 0 	 T: dma(0.135044)
F:  1736471----T:  1736671 	 St: c0b00100 Sz: 64 	 Sm: 0 	 T: dma(0.135044)
F:  1736671----T:  1736871 	 St: c0b010e0 Sz: 32 	 Sm: 0 	 T: dma(0.135044)
F:  1736871----T:  1737071 	 St: c0b01100 Sz: 64 	 Sm: 0 	 T: dma(0.135044)
F:  1737071----T:  1737271 	 St: c0b00080 Sz: 128 	 Sm: 0 	 T: dma(0.135044)
F:  1737271----T:  1740071 	 St: c0b00000 Sz: 8192 	 Sm: 0 	 T: memcpy_h2d(1.890614)
F:  1740071----T:  1860689 	 St: c0b02000 Sz: 1040384 	 Sm: 0 	 T: memcpy_h2d(81.443619)
F:  1866406----T:  1869011 	 St: c0700000 Sz: 4096 	 Sm: 0 	 T: memcpy_h2d(1.758947)
F:  1869011----T:  1990100 	 St: c0701000 Sz: 1044480 	 Sm: 0 	 T: memcpy_h2d(81.761650)
F:  2277843----T:  2556662 	 	 	 Kl: 2 	 Sm: 0 	 T: kernel_launch(188.264008)
F:  2778812----T:  3057127 	 	 	 Kl: 3 	 Sm: 0 	 T: kernel_launch(187.923706)
F:  3279277----T:  3558000 	 	 	 Kl: 4 	 Sm: 0 	 T: kernel_launch(188.199188)
F:  3558000----T:  3560605 	 St: 0 Sz: 4096 	 Sm: 0 	 T: device_sync(1.758947)
F:  3558000----T:  3566240 	 St: 0 Sz: 61440 	 Sm: 0 	 T: device_sync(5.563808)
F:  3568845----T:  3571450 	 St: 0 Sz: 4096 	 Sm: 0 	 T: device_sync(1.758947)
F:  3568845----T:  3577085 	 St: 0 Sz: 61440 	 Sm: 0 	 T: device_sync(5.563808)
F:  3579690----T:  3582295 	 St: 0 Sz: 4096 	 Sm: 0 	 T: device_sync(1.758947)
F:  3579690----T:  3595385 	 St: 0 Sz: 126976 	 Sm: 0 	 T: device_sync(10.597569)
F:  3597990----T:  3600595 	 St: 0 Sz: 4096 	 Sm: 0 	 T: device_sync(1.758947)
F:  3597990----T:  3628713 	 St: 0 Sz: 258048 	 Sm: 0 	 T: device_sync(20.744766)
F:  3631318----T:  3633923 	 St: 0 Sz: 4096 	 Sm: 0 	 T: device_sync(1.758947)
F:  3631318----T:  3692154 	 St: 0 Sz: 520192 	 Sm: 0 	 T: device_sync(41.077652)
F:  3694759----T:  3697364 	 St: 0 Sz: 4096 	 Sm: 0 	 T: device_sync(1.758947)
F:  3694759----T:  3815848 	 St: 0 Sz: 1044480 	 Sm: 0 	 T: device_sync(81.761650)
F:  3818453----T:  3821058 	 St: 0 Sz: 4096 	 Sm: 0 	 T: device_sync(1.758947)
F:  3818453----T:  3826693 	 St: 0 Sz: 61440 	 Sm: 0 	 T: device_sync(5.563808)
F:  3829298----T:  3831903 	 St: 0 Sz: 4096 	 Sm: 0 	 T: device_sync(1.758947)
F:  3829298----T:  3837538 	 St: 0 Sz: 61440 	 Sm: 0 	 T: device_sync(5.563808)
F:  3840143----T:  3842748 	 St: 0 Sz: 4096 	 Sm: 0 	 T: device_sync(1.758947)
F:  3840143----T:  3855838 	 St: 0 Sz: 126976 	 Sm: 0 	 T: device_sync(10.597569)
F:  3858443----T:  3861048 	 St: 0 Sz: 4096 	 Sm: 0 	 T: device_sync(1.758947)
F:  3858443----T:  3889166 	 St: 0 Sz: 258048 	 Sm: 0 	 T: device_sync(20.744766)
F:  3891771----T:  3894376 	 St: 0 Sz: 4096 	 Sm: 0 	 T: device_sync(1.758947)
F:  3891771----T:  3952607 	 St: 0 Sz: 520192 	 Sm: 0 	 T: device_sync(41.077652)
F:  3955212----T:  3957817 	 St: 0 Sz: 4096 	 Sm: 0 	 T: device_sync(1.758947)
F:  3955212----T:  4076301 	 St: 0 Sz: 1044480 	 Sm: 0 	 T: device_sync(81.761650)
F:  4078906----T:  4081511 	 St: 0 Sz: 4096 	 Sm: 0 	 T: device_sync(1.758947)
F:  4078906----T:  4087146 	 St: 0 Sz: 61440 	 Sm: 0 	 T: device_sync(5.563808)
F:  4089751----T:  4092356 	 St: 0 Sz: 4096 	 Sm: 0 	 T: device_sync(1.758947)
F:  4089751----T:  4097991 	 St: 0 Sz: 61440 	 Sm: 0 	 T: device_sync(5.563808)
F:  4100596----T:  4103201 	 St: 0 Sz: 4096 	 Sm: 0 	 T: device_sync(1.758947)
F:  4100596----T:  4116291 	 St: 0 Sz: 126976 	 Sm: 0 	 T: device_sync(10.597569)
F:  4118896----T:  4121501 	 St: 0 Sz: 4096 	 Sm: 0 	 T: device_sync(1.758947)
F:  4118896----T:  4149619 	 St: 0 Sz: 258048 	 Sm: 0 	 T: device_sync(20.744766)
F:  4152224----T:  4154829 	 St: 0 Sz: 4096 	 Sm: 0 	 T: device_sync(1.758947)
F:  4152224----T:  4213060 	 St: 0 Sz: 520192 	 Sm: 0 	 T: device_sync(41.077652)
F:  4215665----T:  4218270 	 St: 0 Sz: 4096 	 Sm: 0 	 T: device_sync(1.758947)
F:  4215665----T:  4336754 	 St: 0 Sz: 1044480 	 Sm: 0 	 T: device_sync(81.761650)
F:  4339359----T:  4341964 	 St: 0 Sz: 4096 	 Sm: 0 	 T: device_sync(1.758947)
F:  4339359----T:  4347599 	 St: 0 Sz: 61440 	 Sm: 0 	 T: device_sync(5.563808)
F:  4350204----T:  4352809 	 St: 0 Sz: 4096 	 Sm: 0 	 T: device_sync(1.758947)
F:  4350204----T:  4358444 	 St: 0 Sz: 61440 	 Sm: 0 	 T: device_sync(5.563808)
F:  4361049----T:  4363654 	 St: 0 Sz: 4096 	 Sm: 0 	 T: device_sync(1.758947)
F:  4361049----T:  4376744 	 St: 0 Sz: 126976 	 Sm: 0 	 T: device_sync(10.597569)
F:  4379349----T:  4381954 	 St: 0 Sz: 4096 	 Sm: 0 	 T: device_sync(1.758947)
F:  4379349----T:  4410072 	 St: 0 Sz: 258048 	 Sm: 0 	 T: device_sync(20.744766)
F:  4412677----T:  4415282 	 St: 0 Sz: 4096 	 Sm: 0 	 T: device_sync(1.758947)
F:  4412677----T:  4473513 	 St: 0 Sz: 520192 	 Sm: 0 	 T: device_sync(41.077652)
F:  4476118----T:  4478723 	 St: 0 Sz: 4096 	 Sm: 0 	 T: device_sync(1.758947)
F:  4476118----T:  4597207 	 St: 0 Sz: 1044480 	 Sm: 0 	 T: device_sync(81.761650)
Tot_prefetch_time: 0(cycle), 0.000000(us)
Tot_kernel_exec_time: 2669400(cycle), 1802.430786(us)
Tot_kernel_exec_time_and_fault_time: 5068620(cycle), 3422.430908(us)
Tot_memcpy_h2d_time: 1556123(cycle), 1050.724487(us)
Tot_memcpy_d2h_time: 0(cycle), 0.000000(us)
Tot_memcpy_time: 1556123(cycle), 1050.724487(us)
Tot_devicesync_time: 1041812(cycle), 703.451721(us)
Tot_writeback_time: 0(cycle), 0.000000(us)
Tot_dma_time: 38800(cycle), 26.198515(us)
Tot_memcpy_d2h_sync_wb_time: 1041812(cycle), 703.451721(us)
GPGPU-Sim: *** exit detected ***
