

        *** GPGPU-Sim Simulator Version 3.2.2  [build gpgpu-sim_git-commit-a9062585c7d8c1292454d5112e137c93a1d88fca_modified_3] ***


GPGPU-Sim PTX: simulation mode 0 (can change with PTX_SIM_MODE_FUNC environment variable:
               1=functional simulation only, 0=detailed performance simulator)
GPGPU-Sim: Configuration options:

-network_mode                           1 # Interconnection network mode
-inter_config_file   config_fermi_islip.icnt # Interconnection network config file
-gpgpu_ptx_use_cuobjdump                    1 # Use cuobjdump to extract ptx and sass from binaries
-gpgpu_experimental_lib_support                    0 # Try to extract code from cuda libraries [Broken because of unknown cudaGetExportTable]
-gpgpu_ptx_convert_to_ptxplus                    0 # Convert SASS (native ISA) to ptxplus and run ptxplus
-gpgpu_ptx_force_max_capability                   20 # Force maximum compute capability
-gpgpu_ptx_inst_debug_to_file                    0 # Dump executed instructions' debug information to file
-gpgpu_ptx_inst_debug_file       inst_debug.txt # Executed instructions' debug output file
-gpgpu_ptx_inst_debug_thread_uid                    1 # Thread UID for executed instructions' debug output
-gpgpu_simd_model                       1 # 1 = post-dominator
-gpgpu_shader_core_pipeline              2048:32 # shader core pipeline config, i.e., {<nthread>:<warpsize>}
-gpgpu_tex_cache:l1  16:128:24,L:R:m:N:L,F:128:4,128:2 # per-shader L1 texture cache  (READ-ONLY) config  {<nsets>:<bsize>:<assoc>,<rep>:<wr>:<alloc>:<wr_alloc>,<mshr>:<N>:<merge>,<mq>:<rf>}
-gpgpu_const_cache:l1 128:64:2,L:R:f:N:L,A:2:64,4 # per-shader L1 constant memory cache  (READ-ONLY) config  {<nsets>:<bsize>:<assoc>,<rep>:<wr>:<alloc>:<wr_alloc>,<mshr>:<N>:<merge>,<mq>} 
-gpgpu_cache:il1     8:128:4,L:R:f:N:L,A:2:48,4 # shader L1 instruction cache config  {<nsets>:<bsize>:<assoc>,<rep>:<wr>:<alloc>:<wr_alloc>,<mshr>:<N>:<merge>,<mq>} 
-gpgpu_cache:dl1     64:128:6,L:L:m:N:H,A:128:8,8 # per-shader L1 data cache config  {<nsets>:<bsize>:<assoc>,<rep>:<wr>:<alloc>:<wr_alloc>,<mshr>:<N>:<merge>,<mq> | none}
-gpgpu_cache:dl1PrefL1                 none # per-shader L1 data cache config  {<nsets>:<bsize>:<assoc>,<rep>:<wr>:<alloc>:<wr_alloc>,<mshr>:<N>:<merge>,<mq> | none}
-gpgpu_cache:dl1PrefShared                 none # per-shader L1 data cache config  {<nsets>:<bsize>:<assoc>,<rep>:<wr>:<alloc>:<wr_alloc>,<mshr>:<N>:<merge>,<mq> | none}
-gmem_skip_L1D                          1 # global memory access skip L1D cache (implements -Xptxas -dlcm=cg, default=no skip)
-gpgpu_perfect_mem                      0 # enable perfect memory mode (no cache miss)
-n_regfile_gating_group                    4 # group of lanes that should be read/written together)
-gpgpu_clock_gated_reg_file                    0 # enable clock gated reg file for power calculations
-gpgpu_clock_gated_lanes                    0 # enable clock gated lanes for power calculations
-gpgpu_shader_registers                65536 # Number of registers per shader core. Limits number of concurrent CTAs. (default 8192)
-gpgpu_shader_cta                      32 # Maximum number of concurrent CTAs in shader (default 8)
-gpgpu_num_cta_barriers                   16 # Maximum number of named barriers per CTA (default 16)
-gpgpu_n_clusters                      28 # number of processing clusters
-gpgpu_n_cores_per_cluster                    1 # number of simd cores per cluster
-gpgpu_n_cluster_ejection_buffer_size                    8 # number of packets in ejection buffer
-gpgpu_n_ldst_response_buffer_size                    2 # number of response packets in ld/st unit ejection buffer
-gpgpu_shmem_size                   16384 # Size of shared memory per shader core (default 16kB)
-gpgpu_shmem_size                   98304 # Size of shared memory per shader core (default 16kB)
-gpgpu_shmem_size_PrefL1                16384 # Size of shared memory per shader core (default 16kB)
-gpgpu_shmem_size_PrefShared                16384 # Size of shared memory per shader core (default 16kB)
-gpgpu_shmem_num_banks                   32 # Number of banks in the shared memory in each shader core (default 16)
-gpgpu_shmem_limited_broadcast                    0 # Limit shared memory to do one broadcast per cycle (default on)
-gpgpu_shmem_warp_parts                    1 # Number of portions a warp is divided into for shared memory bank conflict check 
-gpgpu_warpdistro_shader                   -1 # Specify which shader core to collect the warp size distribution from
-gpgpu_warp_issue_shader                    0 # Specify which shader core to collect the warp issue distribution from
-gpgpu_local_mem_map                    1 # Mapping from local memory space address to simulated GPU physical address space (default = enabled)
-gpgpu_num_reg_banks                   32 # Number of register banks (default = 8)
-gpgpu_reg_bank_use_warp_id                    0 # Use warp ID in mapping registers to banks (default = off)
-gpgpu_operand_collector_num_units_sp                   20 # number of collector units (default = 4)
-gpgpu_operand_collector_num_units_sfu                    4 # number of collector units (default = 4)
-gpgpu_operand_collector_num_units_mem                    8 # number of collector units (default = 2)
-gpgpu_operand_collector_num_units_gen                    0 # number of collector units (default = 0)
-gpgpu_operand_collector_num_in_ports_sp                    4 # number of collector unit in ports (default = 1)
-gpgpu_operand_collector_num_in_ports_sfu                    1 # number of collector unit in ports (default = 1)
-gpgpu_operand_collector_num_in_ports_mem                    1 # number of collector unit in ports (default = 1)
-gpgpu_operand_collector_num_in_ports_gen                    0 # number of collector unit in ports (default = 0)
-gpgpu_operand_collector_num_out_ports_sp                    4 # number of collector unit in ports (default = 1)
-gpgpu_operand_collector_num_out_ports_sfu                    1 # number of collector unit in ports (default = 1)
-gpgpu_operand_collector_num_out_ports_mem                    1 # number of collector unit in ports (default = 1)
-gpgpu_operand_collector_num_out_ports_gen                    0 # number of collector unit in ports (default = 0)
-gpgpu_coalesce_arch                   13 # Coalescing arch (default = 13, anything else is off for now)
-gpgpu_num_sched_per_core                    2 # Number of warp schedulers per core
-gpgpu_max_insn_issue_per_warp                    2 # Max number of instructions that can be issued per warp in one cycle by scheduler
-gpgpu_simt_core_sim_order                    1 # Select the simulation order of cores in a cluster (0=Fix, 1=Round-Robin)
-gpgpu_pipeline_widths        4,1,1,4,1,1,6 # Pipeline widths ID_OC_SP,ID_OC_SFU,ID_OC_MEM,OC_EX_SP,OC_EX_SFU,OC_EX_MEM,EX_WB
-gpgpu_num_sp_units                     4 # Number of SP units (default=1)
-gpgpu_num_sfu_units                    1 # Number of SF units (default=1)
-gpgpu_num_mem_units                    1 # Number if ldst units (default=1) WARNING: not hooked up to anything
-gpgpu_scheduler                      gto # Scheduler configuration: < lrr | gto | two_level_active > If two_level_active:<num_active_warps>:<inner_prioritization>:<outer_prioritization>For complete list of prioritization values see shader.h enum scheduler_prioritization_typeDefault: gto
-gpgpu_concurrent_kernel_sm                    0 # Support concurrent kernels on a SM (default = disabled)
-tlb_size                            4096 # Number of tlb entries per SM.
-gpgpu_dram_scheduler                    1 # 0 = fifo, 1 = FR-FCFS (defaul)
-gpgpu_dram_partition_queues              8:8:8:8 # i2$:$2d:d2$:$2i
-l2_ideal                               0 # Use a ideal L2 cache that always hit
-gpgpu_cache:dl2     64:128:16,L:B:m:W:L,A:1024:1024,4:0,32 # unified banked L2 data cache config  {<nsets>:<bsize>:<assoc>,<rep>:<wr>:<alloc>:<wr_alloc>,<mshr>:<N>:<merge>,<mq>}
-gpgpu_cache:dl2_texture_only                    0 # L2 cache used for texture only
-gpgpu_n_mem                           11 # number of memory modules (e.g. memory controllers) in gpu
-gpgpu_n_sub_partition_per_mchannel                    2 # number of memory subpartition in each memory module
-gpgpu_n_mem_per_ctrlr                    1 # number of memory chips per memory controller
-gpgpu_memlatency_stat                   14 # track and display latency statistics 0x2 enables MC, 0x4 enables queue logs
-gpgpu_frfcfs_dram_sched_queue_size                   64 # 0 = unlimited (default); # entries per chip
-gpgpu_dram_return_queue_size                  116 # 0 = unlimited (default); # entries per chip
-gpgpu_dram_buswidth                    4 # default = 4 bytes (8 bytes per cycle at DDR)
-gpgpu_dram_burst_length                    8 # Burst length of each DRAM request (default = 4 data bus cycle)
-dram_data_command_freq_ratio                    4 # Frequency ratio between DRAM data bus and command bus (default = 2 times, i.e. DDR)
-gpgpu_dram_timing_opt nbk=16:CCD=2:RRD=6:RCD=12:RAS=28:RP=12:RC=40: CL=12:WL=4:CDLR=5:WR=12:nbkgrp=1:CCDL=0:RTPL=0 # DRAM timing parameters = {nbk:tCCD:tRRD:tRCD:tRAS:tRP:tRC:CL:WL:tCDLR:tWR:nbkgrp:tCCDL:tRTPL}
-rop_latency                          120 # ROP queue latency (default 85)
-dram_latency                         100 # DRAM latency (default 30)
-gpgpu_mem_addr_mapping dramid@8;00000000.00000000.00000000.00000000.0000RRRR.RRRRRRRR.RBBBCCCC.BCCSSSSS # mapping memory address to dram model {dramid@<start bit>;<memory address map>}
-gpgpu_mem_addr_test                    0 # run sweep test to check address mapping for aliased address
-gpgpu_mem_address_mask                    1 # 0 = old addressing mask, 1 = new addressing mask, 2 = new add. mask + flipped bank sel and chip sel bits
-gpuwattch_xml_file  gpuwattch_geforcegtx1080ti.xml # GPUWattch XML file
-power_simulation_enabled                    1 # Turn on power simulator (1=On, 0=Off)
-power_per_cycle_dump                    0 # Dump detailed power output each cycle
-power_trace_enabled                    0 # produce a file for the power trace (1=On, 0=Off)
-power_trace_zlevel                     6 # Compression level of the power trace output log (0=no comp, 9=highest)
-steady_power_levels_enabled                    0 # produce a file for the steady power levels (1=On, 0=Off)
-steady_state_definition                  8:4 # allowed deviation:number of samples
-gpgpu_max_cycle                        0 # terminates gpu simulation early (0 = no limit)
-gpgpu_max_insn                         0 # terminates gpu simulation early (0 = no limit)
-gpgpu_max_cta                          0 # terminates gpu simulation early (0 = no limit)
-gpgpu_runtime_stat                   500 # display runtime statistics such as dram utilization {<freq>:<flag>}
-liveness_message_freq                    1 # Minimum number of seconds between simulation liveness messages (0 = always print)
-gpgpu_flush_l1_cache                    0 # Flush L1 cache at the end of each kernel call
-gpgpu_flush_l2_cache                    0 # Flush L2 cache at the end of each kernel call
-gpgpu_deadlock_detect                    0 # Stop the simulation at deadlock (1=on (default), 0=off)
-gpgpu_ptx_instruction_classification                    0 # if enabled will classify ptx instruction types per kernel (Max 255 kernels now)
-gpgpu_ptx_sim_mode                     0 # Select between Performance (default) or Functional simulation (1)
-gpgpu_clock_domains 1481.0:2962.0:1481.0:2750.0 # Clock Domain Frequencies in MhZ {<Core Clock>:<ICNT Clock>:<L2 Clock>:<DRAM Clock>}
-gpgpu_max_concurrent_kernel                    8 # maximum kernels that can run concurrently on GPU
-gpgpu_cflog_interval                    0 # Interval between each snapshot in control flow logger
-visualizer_enabled                     0 # Turn on visualizer output (1=On, 0=Off)
-visualizer_outputfile                 NULL # Specifies the output log file for visualizer
-visualizer_zlevel                      6 # Compression level of the visualizer output log (0=no comp, 9=highest)
-trace_enabled                          0 # Turn on traces
-trace_components                    none # comma seperated list of traces to enable. Complete list found in trace_streams.tup. Default none
-trace_sampling_core                    0 # The core which is printed using CORE_DPRINTF. Default 0
-trace_sampling_memory_partition                   -1 # The memory partition which is printed using MEMPART_DPRINTF. Default -1 (i.e. all)
-gddr_size                      8.86364MB # Size of GDDR in MB/GB.(GLOBAL_HEAP_START, GLOBAL_HEAP_START + gddr_size) would be used for unmanged memory, (GLOBAL_HEAP_START + gddr_size, GLOBAL_HEAP_START + gddr_size*2) would be used for managed memory. 
-page_table_walk_latency                  100 # Average page table walk latency (in core cycle).
-eviction_policy                        3 # Select page eviction policy
-invalidate_clean                       0 # Should directly invalidate clean pages
-reserve_accessed_page_percent                    0 # Percentage of accessed pages reserved from eviction in hope that they will be accessed in next iteration.
-percentage_of_free_page_buffer                    0 # Percentage of free page buffer to trigger the page eviction.
-page_size                            4KB # GDDR page size, only 4KB/2MB avaliable.
-pcie_bandwidth                  16.0GB/s # PCI-e bandwidth per direction, in GB/s.
-enable_dma                             0 # Enable direct access to CPU memory
-multiply_dma_penalty                    2 # Oversubscription Multiplicative Penalty Factor for Adaptive DMA
-migrate_threshold                      8 # Access counter threshold for migrating the page from cpu to gpu
-sim_prof_enable                        1 # Enable gpgpu-sim profiler
-hardware_prefetch                      1 # Select gpgpu-sim hardware prefetcher
-hwprefetch_oversub                     0 # Select gpgpu-sim hardware prefetcher under over-subscription
-page_fault_latency                 66645 # Average fault latency (in core cycle).
-enable_accurate_simulation                    0 # Enable page fault functional simulation.
-enable_ptx_file_line_stats                    1 # Turn on PTX source line statistic profiling. (1 = On)
-ptx_line_stats_filename gpgpu_inst_stats.txt # Output file for PTX source line statistics.
-gpgpu_kernel_launch_latency               222150 # Kernel launch latency in cycles. Default: 0
-gpgpu_cdp_enabled                      0 # Turn on CDP
-save_embedded_ptx                      0 # saves ptx files embedded in binary as <n>.ptx
-keep                                   0 # keep intermediate files created by GPGPU-Sim when interfacing with external programs
-gpgpu_ptx_save_converted_ptxplus                    0 # Saved converted ptxplus to a file
-ptx_opcode_latency_int         4,13,4,5,145 # Opcode latencies for integers <ADD,MAX,MUL,MAD,DIV>Default 1,1,19,25,145
-ptx_opcode_latency_fp          4,13,4,5,39 # Opcode latencies for single precision floating points <ADD,MAX,MUL,MAD,DIV>Default 1,1,1,1,30
-ptx_opcode_latency_dp         8,19,8,8,330 # Opcode latencies for double precision floating points <ADD,MAX,MUL,MAD,DIV>Default 8,8,8,8,335
-ptx_opcode_initiation_int            1,2,2,2,8 # Opcode initiation intervals for integers <ADD,MAX,MUL,MAD,DIV>Default 1,1,4,4,32
-ptx_opcode_initiation_fp            1,2,1,1,4 # Opcode initiation intervals for single precision floating points <ADD,MAX,MUL,MAD,DIV>Default 1,1,1,1,5
-ptx_opcode_initiation_dp          1,2,1,1,130 # Opcode initiation intervals for double precision floating points <ADD,MAX,MUL,MAD,DIV>Default 8,8,8,8,130
-cdp_latency         7200,8000,100,12000,1600 # CDP API latency <cudaStreamCreateWithFlags, cudaGetParameterBufferV2_init_perWarp, cudaGetParameterBufferV2_perKernel, cudaLaunchDeviceV2_init_perWarp, cudaLaunchDevicV2_perKernel>Default 7200,8000,100,12000,1600
DRAM Timing Options:
nbk                                    16 # number of banks
CCD                                     2 # column to column delay
RRD                                     6 # minimal delay between activation of rows in different banks
RCD                                    12 # row to column delay
RAS                                    28 # time needed to activate row
RP                                     12 # time needed to precharge (deactivate) row
RC                                     40 # row cycle time
CDLR                                    5 # switching from write to read (changes tWTR)
WR                                     12 # last data-in to row precharge
CL                                     12 # CAS latency
WL                                      4 # Write latency
nbkgrp                                  1 # number of bank groups
CCDL                                    0 # column to column delay between accesses to different bank groups
RTPL                                    0 # read to precharge delay between accesses to different bank groups
Total number of memory sub partition = 22
addr_dec_mask[CHIP]  = 0000000000000000 	high:64 low:0
addr_dec_mask[BK]    = 0000000000007080 	high:15 low:7
addr_dec_mask[ROW]   = 000000000fff8000 	high:28 low:15
addr_dec_mask[COL]   = 0000000000000f7f 	high:12 low:0
addr_dec_mask[BURST] = 000000000000001f 	high:5 low:0
sub_partition_id_mask = 0000000000000080
GPGPU-Sim uArch: clock freqs: 1481000000.000000:2962000000.000000:1481000000.000000:2750000000.000000
GPGPU-Sim uArch: clock periods: 0.00000000067521944632:0.00000000033760972316:0.00000000067521944632:0.00000000036363636364
*** Initializing Memory Statistics ***
GPGPU-Sim uArch: interconnect node map (shaderID+MemID to icntID)
GPGPU-Sim uArch: Memory nodes ID start from index: 28
GPGPU-Sim uArch:    0   1   2   3   4   5   6
GPGPU-Sim uArch:    7   8   9  10  11  12  13
GPGPU-Sim uArch:   14  15  16  17  18  19  20
GPGPU-Sim uArch:   21  22  23  24  25  26  27
GPGPU-Sim uArch:   28  29  30  31  32  33  34
GPGPU-Sim uArch:   35  36  37  38  39  40  41
GPGPU-Sim uArch:   42  43  44  45  46  47  48
GPGPU-Sim uArch:   49
GPGPU-Sim uArch: interconnect node reverse map (icntID to shaderID+MemID)
GPGPU-Sim uArch: Memory nodes start from ID: 28
GPGPU-Sim uArch:    0   1   2   3   4   5   6
GPGPU-Sim uArch:    7   8   9  10  11  12  13
GPGPU-Sim uArch:   14  15  16  17  18  19  20
GPGPU-Sim uArch:   21  22  23  24  25  26  27
GPGPU-Sim uArch:   28  29  30  31  32  33  34
GPGPU-Sim uArch:   35  36  37  38  39  40  41
GPGPU-Sim uArch:   42  43  44  45  46  47  48
GPGPU-Sim uArch:   49
c93c67a11a8a1502252e194e32f1efe0  /root/gpgpu-sim_UVMSmart/benchmarks/Managed/bfs/bfs
GPGPU-Sim uArch: performance model initialization complete.
GPGPU-Sim PTX: __cudaRegisterFatBinary, fat_cubin_handle = 1, filename=default
self exe links to: /root/gpgpu-sim_UVMSmart/benchmarks/Managed/bfs/bfs
Running md5sum using "md5sum /root/gpgpu-sim_UVMSmart/benchmarks/Managed/bfs/bfs "
Parsing file _cuobjdump_complete_output_omOUDr
######### cuobjdump parser ########
## Adding new section ELF
Adding arch: sm_20
Adding identifier: default
## Adding new section ELF
Adding arch: sm_20
Adding identifier: default
## Adding new section PTX
Adding ptx filename: _cuobjdump_1.ptx
Adding arch: sm_20
Adding identifier: default
Done parsing!!!
GPGPU-Sim PTX: __cudaRegisterFunction _Z7Kernel2PbS_S_S_i : hostFun 0x0x401649, fat_cubin_handle = 1
GPGPU-Sim PTX: instruction assembly for function '_Z6KernelP4NodePiPbS2_S2_S1_i'...   done.
GPGPU-Sim PTX: finding reconvergence points for '_Z6KernelP4NodePiPbS2_S2_S1_i'...
GPGPU-Sim PTX: Finding dominators for '_Z6KernelP4NodePiPbS2_S2_S1_i'...
GPGPU-Sim PTX: Finding immediate dominators for '_Z6KernelP4NodePiPbS2_S2_S1_i'...
GPGPU-Sim PTX: Finding postdominators for '_Z6KernelP4NodePiPbS2_S2_S1_i'...
GPGPU-Sim PTX: Finding immediate postdominators for '_Z6KernelP4NodePiPbS2_S2_S1_i'...
GPGPU-Sim PTX: pre-decoding instructions for '_Z6KernelP4NodePiPbS2_S2_S1_i'...
GPGPU-Sim PTX: reconvergence points for _Z6KernelP4NodePiPbS2_S2_S1_i...
GPGPU-Sim PTX:  1 (potential) branch divergence @  PC=0x060 (_1.ptx:42) @%p1 bra BB0_7;
GPGPU-Sim PTX:    immediate post dominator      @  PC=0x1e8 (_1.ptx:101) ret;
GPGPU-Sim PTX:  2 (potential) branch divergence @  PC=0x090 (_1.ptx:49) @%p2 bra BB0_7;
GPGPU-Sim PTX:    immediate post dominator      @  PC=0x1e8 (_1.ptx:101) ret;
GPGPU-Sim PTX:  3 (potential) branch divergence @  PC=0x0d8 (_1.ptx:59) @%p3 bra BB0_7;
GPGPU-Sim PTX:    immediate post dominator      @  PC=0x1e8 (_1.ptx:101) ret;
GPGPU-Sim PTX:  4 (potential) branch divergence @  PC=0x160 (_1.ptx:79) @%p4 bra BB0_6;
GPGPU-Sim PTX:    immediate post dominator      @  PC=0x1b8 (_1.ptx:93) mov.u32 %r24, %r25;
GPGPU-Sim PTX:  5 (potential) branch divergence @  PC=0x1e0 (_1.ptx:98) @%p5 bra BB0_4;
GPGPU-Sim PTX:    immediate post dominator      @  PC=0x1e8 (_1.ptx:101) ret;
GPGPU-Sim PTX: ... end of reconvergence points for _Z6KernelP4NodePiPbS2_S2_S1_i
GPGPU-Sim PTX: ... done pre-decoding instructions for '_Z6KernelP4NodePiPbS2_S2_S1_i'.
GPGPU-Sim PTX: instruction assembly for function '_Z7Kernel2PbS_S_S_i'...   done.
GPGPU-Sim PTX: finding reconvergence points for '_Z7Kernel2PbS_S_S_i'...
GPGPU-Sim PTX: Finding dominators for '_Z7Kernel2PbS_S_S_i'...
GPGPU-Sim PTX: Finding immediate dominators for '_Z7Kernel2PbS_S_S_i'...
GPGPU-Sim PTX: Finding postdominators for '_Z7Kernel2PbS_S_S_i'...
GPGPU-Sim PTX: Finding immediate postdominators for '_Z7Kernel2PbS_S_S_i'...
GPGPU-Sim PTX: pre-decoding instructions for '_Z7Kernel2PbS_S_S_i'...
GPGPU-Sim PTX: reconvergence points for _Z7Kernel2PbS_S_S_i...
GPGPU-Sim PTX:  1 (potential) branch divergence @  PC=0x240 (_1.ptx:129) @%p1 bra BB1_3;
GPGPU-Sim PTX:    immediate post dominator      @  PC=0x2d0 (_1.ptx:151) ret;
GPGPU-Sim PTX:  2 (potential) branch divergence @  PC=0x270 (_1.ptx:136) @%p2 bra BB1_3;
GPGPU-Sim PTX:    immediate post dominator      @  PC=0x2d0 (_1.ptx:151) ret;
GPGPU-Sim PTX: ... end of reconvergence points for _Z7Kernel2PbS_S_S_i
GPGPU-Sim PTX: ... done pre-decoding instructions for '_Z7Kernel2PbS_S_S_i'.
GPGPU-Sim PTX: finished parsing EMBEDDED .ptx file _1.ptx
Adding _cuobjdump_1.ptx with cubin handle 1
GPGPU-Sim PTX: extracting embedded .ptx to temporary file "_ptx_gNtp4d"
Running: cat _ptx_gNtp4d | sed 's/.version 1.5/.version 1.4/' | sed 's/, texmode_independent//' | sed 's/\(\.extern \.const\[1\] .b8 \w\+\)\[\]/\1\[1\]/' | sed 's/const\[.\]/const\[0\]/g' > _ptx2_0ZNUu0
GPGPU-Sim PTX: generating ptxinfo using "$CUDA_INSTALL_PATH/bin/ptxas --gpu-name=sm_20 -v _ptx2_0ZNUu0 --output-file  /dev/null 2> _ptx_gNtp4dinfo"
GPGPU-Sim PTX: Kernel '_Z7Kernel2PbS_S_S_i' : regs=12, lmem=0, smem=0, cmem=68
GPGPU-Sim PTX: Kernel '_Z6KernelP4NodePiPbS2_S2_S1_i' : regs=15, lmem=0, smem=0, cmem=84
GPGPU-Sim PTX: removing ptxinfo using "rm -f _ptx_gNtp4d _ptx2_0ZNUu0 _ptx_gNtp4dinfo"
GPGPU-Sim PTX: loading globals with explicit initializers... 
GPGPU-Sim PTX: finished loading globals (0 bytes total).
GPGPU-Sim PTX: loading constants with explicit initializers...  done.
GPGPU-Sim PTX: __cudaRegisterFunction _Z6KernelP4NodePiPbS2_S2_S1_i : hostFun 0x0x401519, fat_cubin_handle = 1
Reading File
Read File
Copied Everything to GPU memory
Start traversing the tree

GPGPU-Sim PTX: cudaLaunch for 0x0x401519 (mode=performance simulation) on stream 0
GPGPU-Sim PTX: pushing kernel '_Z6KernelP4NodePiPbS2_S2_S1_i' to stream 0, gridDim= (511,1,1) blockDim = (512,1,1) 
GPGPU-Sim uArch: Shader 1 bind to kernel 1 '_Z6KernelP4NodePiPbS2_S2_S1_i'
GPGPU-Sim uArch: CTA/core = 4, limited by: threads
GPGPU-Sim uArch: Shader 2 bind to kernel 1 '_Z6KernelP4NodePiPbS2_S2_S1_i'
GPGPU-Sim uArch: Shader 3 bind to kernel 1 '_Z6KernelP4NodePiPbS2_S2_S1_i'
GPGPU-Sim uArch: Shader 4 bind to kernel 1 '_Z6KernelP4NodePiPbS2_S2_S1_i'
GPGPU-Sim uArch: Shader 5 bind to kernel 1 '_Z6KernelP4NodePiPbS2_S2_S1_i'
GPGPU-Sim uArch: Shader 6 bind to kernel 1 '_Z6KernelP4NodePiPbS2_S2_S1_i'
GPGPU-Sim uArch: Shader 7 bind to kernel 1 '_Z6KernelP4NodePiPbS2_S2_S1_i'
GPGPU-Sim uArch: Shader 8 bind to kernel 1 '_Z6KernelP4NodePiPbS2_S2_S1_i'
GPGPU-Sim uArch: Shader 9 bind to kernel 1 '_Z6KernelP4NodePiPbS2_S2_S1_i'
GPGPU-Sim uArch: Shader 10 bind to kernel 1 '_Z6KernelP4NodePiPbS2_S2_S1_i'
GPGPU-Sim uArch: Shader 11 bind to kernel 1 '_Z6KernelP4NodePiPbS2_S2_S1_i'
GPGPU-Sim uArch: Shader 12 bind to kernel 1 '_Z6KernelP4NodePiPbS2_S2_S1_i'
GPGPU-Sim uArch: Shader 13 bind to kernel 1 '_Z6KernelP4NodePiPbS2_S2_S1_i'
GPGPU-Sim uArch: Shader 14 bind to kernel 1 '_Z6KernelP4NodePiPbS2_S2_S1_i'
GPGPU-Sim uArch: Shader 15 bind to kernel 1 '_Z6KernelP4NodePiPbS2_S2_S1_i'
GPGPU-Sim uArch: Shader 16 bind to kernel 1 '_Z6KernelP4NodePiPbS2_S2_S1_i'
GPGPU-Sim uArch: Shader 17 bind to kernel 1 '_Z6KernelP4NodePiPbS2_S2_S1_i'
GPGPU-Sim uArch: Shader 18 bind to kernel 1 '_Z6KernelP4NodePiPbS2_S2_S1_i'
GPGPU-Sim uArch: Shader 19 bind to kernel 1 '_Z6KernelP4NodePiPbS2_S2_S1_i'
GPGPU-Sim uArch: Shader 20 bind to kernel 1 '_Z6KernelP4NodePiPbS2_S2_S1_i'
GPGPU-Sim uArch: Shader 21 bind to kernel 1 '_Z6KernelP4NodePiPbS2_S2_S1_i'
GPGPU-Sim uArch: Shader 22 bind to kernel 1 '_Z6KernelP4NodePiPbS2_S2_S1_i'
GPGPU-Sim uArch: Shader 23 bind to kernel 1 '_Z6KernelP4NodePiPbS2_S2_S1_i'
GPGPU-Sim uArch: Shader 24 bind to kernel 1 '_Z6KernelP4NodePiPbS2_S2_S1_i'
GPGPU-Sim uArch: Shader 25 bind to kernel 1 '_Z6KernelP4NodePiPbS2_S2_S1_i'
GPGPU-Sim uArch: Shader 26 bind to kernel 1 '_Z6KernelP4NodePiPbS2_S2_S1_i'
GPGPU-Sim uArch: Shader 27 bind to kernel 1 '_Z6KernelP4NodePiPbS2_S2_S1_i'
GPGPU-Sim uArch: Shader 0 bind to kernel 1 '_Z6KernelP4NodePiPbS2_S2_S1_i'
GPGPU-Sim uArch: Shader 1 bind to kernel 1 '_Z6KernelP4NodePiPbS2_S2_S1_i'
GPGPU-Sim uArch: Shader 2 bind to kernel 1 '_Z6KernelP4NodePiPbS2_S2_S1_i'
GPGPU-Sim uArch: Shader 3 bind to kernel 1 '_Z6KernelP4NodePiPbS2_S2_S1_i'
GPGPU-Sim uArch: Shader 4 bind to kernel 1 '_Z6KernelP4NodePiPbS2_S2_S1_i'
GPGPU-Sim uArch: Shader 5 bind to kernel 1 '_Z6KernelP4NodePiPbS2_S2_S1_i'
GPGPU-Sim uArch: Shader 6 bind to kernel 1 '_Z6KernelP4NodePiPbS2_S2_S1_i'
GPGPU-Sim uArch: Shader 7 bind to kernel 1 '_Z6KernelP4NodePiPbS2_S2_S1_i'
GPGPU-Sim uArch: Shader 8 bind to kernel 1 '_Z6KernelP4NodePiPbS2_S2_S1_i'
GPGPU-Sim uArch: Shader 9 bind to kernel 1 '_Z6KernelP4NodePiPbS2_S2_S1_i'
GPGPU-Sim uArch: Shader 10 bind to kernel 1 '_Z6KernelP4NodePiPbS2_S2_S1_i'
GPGPU-Sim uArch: Shader 11 bind to kernel 1 '_Z6KernelP4NodePiPbS2_S2_S1_i'
GPGPU-Sim uArch: Shader 12 bind to kernel 1 '_Z6KernelP4NodePiPbS2_S2_S1_i'
GPGPU-Sim uArch: Shader 13 bind to kernel 1 '_Z6KernelP4NodePiPbS2_S2_S1_i'
GPGPU-Sim uArch: Shader 14 bind to kernel 1 '_Z6KernelP4NodePiPbS2_S2_S1_i'
GPGPU-Sim uArch: Shader 15 bind to kernel 1 '_Z6KernelP4NodePiPbS2_S2_S1_i'
GPGPU-Sim uArch: Shader 16 bind to kernel 1 '_Z6KernelP4NodePiPbS2_S2_S1_i'
GPGPU-Sim uArch: Shader 17 bind to kernel 1 '_Z6KernelP4NodePiPbS2_S2_S1_i'
GPGPU-Sim uArch: Shader 18 bind to kernel 1 '_Z6KernelP4NodePiPbS2_S2_S1_i'
GPGPU-Sim uArch: Shader 19 bind to kernel 1 '_Z6KernelP4NodePiPbS2_S2_S1_i'
GPGPU-Sim uArch: Shader 20 bind to kernel 1 '_Z6KernelP4NodePiPbS2_S2_S1_i'
GPGPU-Sim uArch: Shader 21 bind to kernel 1 '_Z6KernelP4NodePiPbS2_S2_S1_i'
GPGPU-Sim uArch: Shader 22 bind to kernel 1 '_Z6KernelP4NodePiPbS2_S2_S1_i'
GPGPU-Sim uArch: Shader 23 bind to kernel 1 '_Z6KernelP4NodePiPbS2_S2_S1_i'
GPGPU-Sim uArch: Shader 24 bind to kernel 1 '_Z6KernelP4NodePiPbS2_S2_S1_i'
GPGPU-Sim uArch: Shader 25 bind to kernel 1 '_Z6KernelP4NodePiPbS2_S2_S1_i'
GPGPU-Sim uArch: Shader 26 bind to kernel 1 '_Z6KernelP4NodePiPbS2_S2_S1_i'
GPGPU-Sim uArch: Shader 27 bind to kernel 1 '_Z6KernelP4NodePiPbS2_S2_S1_i'
GPGPU-Sim uArch: Shader 0 bind to kernel 1 '_Z6KernelP4NodePiPbS2_S2_S1_i'
Destroy streams for kernel 1: size 0

GPGPU-Sim PTX: cudaLaunch for 0x0x401649 (mode=performance simulation) on stream 0
GPGPU-Sim PTX: pushing kernel '_Z7Kernel2PbS_S_S_i' to stream 0, gridDim= (511,1,1) blockDim = (512,1,1) 
kernel_name = _Z6KernelP4NodePiPbS2_S2_S1_i 
kernel_launch_uid = 1 
gpu_sim_cycle = 184798
gpu_sim_insn = 4970238
gpu_ipc =      26.8955
gpu_tot_sim_cycle = 409484
gpu_tot_sim_insn = 4970238
gpu_tot_ipc =      12.1378
gpu_tot_issued_cta = 511
max_total_param_size = 0
gpu_stall_dramfull = 87
gpu_stall_icnt2sh    = 5713
partiton_reqs_in_parallel = 4065469
partiton_reqs_in_parallel_total    = 0
partiton_level_parallism =      21.9995
partiton_level_parallism_total  =       9.9283
partiton_reqs_in_parallel_util = 4065469
partiton_reqs_in_parallel_util_total    = 0
gpu_sim_cycle_parition_util = 184798
gpu_tot_sim_cycle_parition_util    = 0
partiton_level_parallism_util =      21.9995
partiton_level_parallism_util_total  =      21.9995
partiton_replys_in_parallel = 8336
partiton_replys_in_parallel_total    = 0
L2_BW  =       4.2756 GB/Sec
L2_BW_total  =       1.9295 GB/Sec
gpu_total_sim_rate=32066

========= Core cache stats =========
L1I_cache:
	L1I_total_cache_accesses = 90013
	L1I_total_cache_misses = 2778
	L1I_total_cache_miss_rate = 0.0309
	L1I_total_cache_pending_hits = 0
	L1I_total_cache_reservation_fails = 6846
L1D_cache:
	L1D_cache_core[0]: Access = 0, Miss = 0, Miss_rate = -nan, Pending_hits = 0, Reservation_fails = 0
	L1D_cache_core[1]: Access = 0, Miss = 0, Miss_rate = -nan, Pending_hits = 0, Reservation_fails = 0
	L1D_cache_core[2]: Access = 0, Miss = 0, Miss_rate = -nan, Pending_hits = 0, Reservation_fails = 0
	L1D_cache_core[3]: Access = 0, Miss = 0, Miss_rate = -nan, Pending_hits = 0, Reservation_fails = 0
	L1D_cache_core[4]: Access = 0, Miss = 0, Miss_rate = -nan, Pending_hits = 0, Reservation_fails = 0
	L1D_cache_core[5]: Access = 0, Miss = 0, Miss_rate = -nan, Pending_hits = 0, Reservation_fails = 0
	L1D_cache_core[6]: Access = 0, Miss = 0, Miss_rate = -nan, Pending_hits = 0, Reservation_fails = 0
	L1D_cache_core[7]: Access = 0, Miss = 0, Miss_rate = -nan, Pending_hits = 0, Reservation_fails = 0
	L1D_cache_core[8]: Access = 0, Miss = 0, Miss_rate = -nan, Pending_hits = 0, Reservation_fails = 0
	L1D_cache_core[9]: Access = 0, Miss = 0, Miss_rate = -nan, Pending_hits = 0, Reservation_fails = 0
	L1D_cache_core[10]: Access = 0, Miss = 0, Miss_rate = -nan, Pending_hits = 0, Reservation_fails = 0
	L1D_cache_core[11]: Access = 0, Miss = 0, Miss_rate = -nan, Pending_hits = 0, Reservation_fails = 0
	L1D_cache_core[12]: Access = 0, Miss = 0, Miss_rate = -nan, Pending_hits = 0, Reservation_fails = 0
	L1D_cache_core[13]: Access = 0, Miss = 0, Miss_rate = -nan, Pending_hits = 0, Reservation_fails = 0
	L1D_cache_core[14]: Access = 0, Miss = 0, Miss_rate = -nan, Pending_hits = 0, Reservation_fails = 0
	L1D_cache_core[15]: Access = 0, Miss = 0, Miss_rate = -nan, Pending_hits = 0, Reservation_fails = 0
	L1D_cache_core[16]: Access = 0, Miss = 0, Miss_rate = -nan, Pending_hits = 0, Reservation_fails = 0
	L1D_cache_core[17]: Access = 0, Miss = 0, Miss_rate = -nan, Pending_hits = 0, Reservation_fails = 0
	L1D_cache_core[18]: Access = 0, Miss = 0, Miss_rate = -nan, Pending_hits = 0, Reservation_fails = 0
	L1D_cache_core[19]: Access = 0, Miss = 0, Miss_rate = -nan, Pending_hits = 0, Reservation_fails = 0
	L1D_cache_core[20]: Access = 0, Miss = 0, Miss_rate = -nan, Pending_hits = 0, Reservation_fails = 0
	L1D_cache_core[21]: Access = 0, Miss = 0, Miss_rate = -nan, Pending_hits = 0, Reservation_fails = 0
	L1D_cache_core[22]: Access = 0, Miss = 0, Miss_rate = -nan, Pending_hits = 0, Reservation_fails = 0
	L1D_cache_core[23]: Access = 0, Miss = 0, Miss_rate = -nan, Pending_hits = 0, Reservation_fails = 0
	L1D_cache_core[24]: Access = 0, Miss = 0, Miss_rate = -nan, Pending_hits = 0, Reservation_fails = 0
	L1D_cache_core[25]: Access = 0, Miss = 0, Miss_rate = -nan, Pending_hits = 0, Reservation_fails = 0
	L1D_cache_core[26]: Access = 0, Miss = 0, Miss_rate = -nan, Pending_hits = 0, Reservation_fails = 0
	L1D_cache_core[27]: Access = 0, Miss = 0, Miss_rate = -nan, Pending_hits = 0, Reservation_fails = 0
	L1D_total_cache_accesses = 0
	L1D_total_cache_misses = 0
	L1D_total_cache_pending_hits = 0
	L1D_total_cache_reservation_fails = 0
	L1D_cache_data_port_util = 0.000
	L1D_cache_fill_port_util = 0.000
L1C_cache:
	L1C_total_cache_accesses = 57232
	L1C_total_cache_misses = 1792
	L1C_total_cache_miss_rate = 0.0313
	L1C_total_cache_pending_hits = 0
	L1C_total_cache_reservation_fails = 4886
L1T_cache:
	L1T_total_cache_accesses = 0
	L1T_total_cache_misses = 0
	L1T_total_cache_pending_hits = 0
	L1T_total_cache_reservation_fails = 0

Total_core_cache_stats:
	Total_core_cache_stats_breakdown[GLOBAL_ACC_R][HIT] = 0
	Total_core_cache_stats_breakdown[GLOBAL_ACC_R][HIT_RESERVED] = 0
	Total_core_cache_stats_breakdown[GLOBAL_ACC_R][MISS] = 0
	Total_core_cache_stats_breakdown[GLOBAL_ACC_R][RESERVATION_FAIL] = 0
	Total_core_cache_stats_breakdown[LOCAL_ACC_R][HIT] = 0
	Total_core_cache_stats_breakdown[LOCAL_ACC_R][HIT_RESERVED] = 0
	Total_core_cache_stats_breakdown[LOCAL_ACC_R][MISS] = 0
	Total_core_cache_stats_breakdown[LOCAL_ACC_R][RESERVATION_FAIL] = 0
	Total_core_cache_stats_breakdown[CONST_ACC_R][HIT] = 55440
	Total_core_cache_stats_breakdown[CONST_ACC_R][HIT_RESERVED] = 0
	Total_core_cache_stats_breakdown[CONST_ACC_R][MISS] = 1792
	Total_core_cache_stats_breakdown[CONST_ACC_R][RESERVATION_FAIL] = 4886
	Total_core_cache_stats_breakdown[TEXTURE_ACC_R][HIT] = 0
	Total_core_cache_stats_breakdown[TEXTURE_ACC_R][HIT_RESERVED] = 0
	Total_core_cache_stats_breakdown[TEXTURE_ACC_R][MISS] = 0
	Total_core_cache_stats_breakdown[TEXTURE_ACC_R][RESERVATION_FAIL] = 0
	Total_core_cache_stats_breakdown[GLOBAL_ACC_W][HIT] = 0
	Total_core_cache_stats_breakdown[GLOBAL_ACC_W][HIT_RESERVED] = 0
	Total_core_cache_stats_breakdown[GLOBAL_ACC_W][MISS] = 0
	Total_core_cache_stats_breakdown[GLOBAL_ACC_W][RESERVATION_FAIL] = 0
	Total_core_cache_stats_breakdown[LOCAL_ACC_W][HIT] = 0
	Total_core_cache_stats_breakdown[LOCAL_ACC_W][HIT_RESERVED] = 0
	Total_core_cache_stats_breakdown[LOCAL_ACC_W][MISS] = 0
	Total_core_cache_stats_breakdown[LOCAL_ACC_W][RESERVATION_FAIL] = 0
	Total_core_cache_stats_breakdown[L1_WRBK_ACC][HIT] = 0
	Total_core_cache_stats_breakdown[L1_WRBK_ACC][HIT_RESERVED] = 0
	Total_core_cache_stats_breakdown[L1_WRBK_ACC][MISS] = 0
	Total_core_cache_stats_breakdown[L1_WRBK_ACC][RESERVATION_FAIL] = 0
	Total_core_cache_stats_breakdown[L2_WRBK_ACC][HIT] = 0
	Total_core_cache_stats_breakdown[L2_WRBK_ACC][HIT_RESERVED] = 0
	Total_core_cache_stats_breakdown[L2_WRBK_ACC][MISS] = 0
	Total_core_cache_stats_breakdown[L2_WRBK_ACC][RESERVATION_FAIL] = 0
	Total_core_cache_stats_breakdown[INST_ACC_R][HIT] = 87235
	Total_core_cache_stats_breakdown[INST_ACC_R][HIT_RESERVED] = 0
	Total_core_cache_stats_breakdown[INST_ACC_R][MISS] = 2778
	Total_core_cache_stats_breakdown[INST_ACC_R][RESERVATION_FAIL] = 6846
	Total_core_cache_stats_breakdown[L1_WR_ALLOC_R][HIT] = 0
	Total_core_cache_stats_breakdown[L1_WR_ALLOC_R][HIT_RESERVED] = 0
	Total_core_cache_stats_breakdown[L1_WR_ALLOC_R][MISS] = 0
	Total_core_cache_stats_breakdown[L1_WR_ALLOC_R][RESERVATION_FAIL] = 0
	Total_core_cache_stats_breakdown[L2_WR_ALLOC_R][HIT] = 0
	Total_core_cache_stats_breakdown[L2_WR_ALLOC_R][HIT_RESERVED] = 0
	Total_core_cache_stats_breakdown[L2_WR_ALLOC_R][MISS] = 0
	Total_core_cache_stats_breakdown[L2_WR_ALLOC_R][RESERVATION_FAIL] = 0
	Total_core_cache_stats_breakdown[CONST_ACC_R][TOTAL_ACCESS] = 57232
	Total_core_cache_stats_breakdown[INST_ACC_R][TOTAL_ACCESS] = 90013
Shader 0 warp_id issue ditsribution:
warp_id:
0, 1, 2, 3, 4, 5, 6, 7, 8, 9, 10, 11, 12, 13, 14, 15, 16, 17, 18, 19, 20, 21, 22, 23, 24, 25, 26, 27, 28, 29, 30, 31, 32, 33, 34, 35, 36, 37, 38, 39, 40, 41, 42, 43, 44, 45, 46, 47, 48, 49, 50, 51, 52, 53, 54, 55, 56, 57, 58, 59, 60, 61, 62, 63, 
distro:
115, 115, 114, 115, 114, 115, 114, 115, 115, 115, 115, 115, 115, 115, 115, 115, 115, 115, 115, 115, 115, 115, 115, 115, 115, 115, 115, 115, 115, 115, 115, 115, 115, 115, 115, 115, 115, 115, 115, 115, 115, 115, 115, 115, 115, 115, 115, 115, 92, 92, 92, 92, 92, 92, 92, 92, 92, 92, 92, 92, 92, 92, 92, 92, 
gpgpu_n_tot_thrd_icount = 5237440
gpgpu_n_tot_w_icount = 163670
gpgpu_n_stall_shd_mem = 5731
gpgpu_n_mem_read_local = 0
gpgpu_n_mem_write_local = 0
gpgpu_n_mem_read_global = 8208
gpgpu_n_mem_write_global = 15
gpgpu_n_mem_texture = 0
gpgpu_n_mem_const = 28
gpgpu_n_load_insn  = 261481
gpgpu_n_store_insn = 15
gpgpu_n_shmem_insn = 0
gpgpu_n_tex_insn = 0
gpgpu_n_const_mem_insn = 0
gpgpu_n_param_mem_insn = 1831424
gpgpu_n_shmem_bkconflict = 0
gpgpu_n_cache_bkconflict = 0
gpgpu_n_intrawarp_mshr_merge = 0
gpgpu_n_cmem_portconflict = 4886
gpgpu_stall_shd_mem[c_mem][bk_conf] = 4886
gpgpu_stall_shd_mem[c_mem][mshr_rc] = 0
gpgpu_stall_shd_mem[c_mem][icnt_rc] = 0
gpgpu_stall_shd_mem[c_mem][data_port_stall] = 0
gpgpu_stall_shd_mem[t_mem][mshr_rc] = 0
gpgpu_stall_shd_mem[t_mem][icnt_rc] = 0
gpgpu_stall_shd_mem[t_mem][data_port_stall] = 0
gpgpu_stall_shd_mem[s_mem][bk_conf] = 0
gpgpu_stall_shd_mem[gl_mem][bk_conf] = 0
gpgpu_stall_shd_mem[gl_mem][coal_stall] = 0
gpgpu_stall_shd_mem[gl_mem][data_port_stall] = 0
gpgpu_stall_shd_mem[g_mem_ld][mshr_rc] = 0
gpgpu_stall_shd_mem[g_mem_ld][icnt_rc] = 845
gpgpu_stall_shd_mem[g_mem_ld][wb_icnt_rc] = 0
gpgpu_stall_shd_mem[g_mem_ld][wb_rsrv_fail] = 0
gpgpu_stall_shd_mem[g_mem_st][mshr_rc] = 0
gpgpu_stall_shd_mem[g_mem_st][icnt_rc] = 0
gpgpu_stall_shd_mem[g_mem_st][wb_icnt_rc] = 0
gpgpu_stall_shd_mem[g_mem_st][wb_rsrv_fail] = 0
gpgpu_stall_shd_mem[l_mem_ld][mshr_rc] = 0
gpgpu_stall_shd_mem[l_mem_ld][icnt_rc] = 0
gpgpu_stall_shd_mem[l_mem_ld][wb_icnt_rc] = 0
gpgpu_stall_shd_mem[l_mem_ld][wb_rsrv_fail] = 0
gpgpu_stall_shd_mem[l_mem_st][mshr_rc] = 0
gpgpu_stall_shd_mem[l_mem_st][icnt_rc] = 0
gpgpu_stall_shd_mem[l_mem_ld][wb_icnt_rc] = 0
gpgpu_stall_shd_mem[l_mem_ld][wb_rsrv_fail] = 0
gpu_reg_bank_conflict_stalls = 0
Warp Occupancy Distribution:
Stall:33925	W0_Idle:7738305	W0_Scoreboard:2430278	W1:180	W2:0	W3:0	W4:6	W5:0	W6:0	W7:0	W8:0	W9:0	W10:0	W11:0	W12:0	W13:0	W14:0	W15:0	W16:0	W17:0	W18:0	W19:0	W20:0	W21:0	W22:0	W23:0	W24:0	W25:0	W26:0	W27:0	W28:0	W29:0	W30:0	W31:0	W32:163484
traffic_breakdown_coretomem[CONST_ACC_R] = 224 {8:28,}
traffic_breakdown_coretomem[GLOBAL_ACC_R] = 65664 {8:8208,}
traffic_breakdown_coretomem[GLOBAL_ACC_W] = 600 {40:15,}
traffic_breakdown_coretomem[INST_ACC_R] = 680 {8:85,}
traffic_breakdown_memtocore[CONST_ACC_R] = 2016 {72:28,}
traffic_breakdown_memtocore[GLOBAL_ACC_R] = 328320 {40:8208,}
traffic_breakdown_memtocore[GLOBAL_ACC_W] = 120 {8:15,}
traffic_breakdown_memtocore[INST_ACC_R] = 11560 {136:85,}
maxmrqlatency = 83 
maxdqlatency = 0 
maxmflatency = 32067 
averagemflatency = 7389 
max_icnt2mem_latency = 31815 
max_icnt2sh_latency = 367098 
mrq_lat_table:983 	145 	158 	258 	208 	283 	49 	0 	0 	0 	0 	0 	0 	0 	0 	0 	0 	0 	0 	0 	0 	0 	0 	0 	0 	0 	0 	0 	0 	0 	0 	0 	
dq_lat_table:0 	0 	0 	0 	0 	0 	0 	0 	0 	0 	0 	0 	0 	0 	0 	0 	0 	0 	0 	0 	0 	0 	0 	0 	0 	0 	0 	0 	0 	0 	0 	0 	
mf_lat_table:0 	0 	0 	0 	0 	0 	0 	1042 	2426 	0 	0 	896 	128 	2567 	1192 	0 	0 	0 	0 	0 	0 	0 	0 	0 	0 	0 	0 	0 	0 	0 	0 	0 	
icnt2mem_lat_table:0 	0 	1116 	29 	24 	0 	2384 	0 	0 	0 	0 	896 	128 	2567 	1192 	0 	0 	0 	0 	0 	0 	0 	0 	0 	
icnt2sh_lat_table:0 	0 	3274 	3543 	1400 	19 	0 	0 	0 	0 	0 	0 	0 	0 	0 	0 	0 	1 	14 	0 	0 	0 	0 	0 	
mf_lat_pw_table:0 	0 	0 	0 	0 	0 	0 	9 	3 	0 	0 	5 	2 	11 	6 	0 	0 	0 	0 	0 	0 	0 	0 	0 	0 	0 	0 	0 	0 	0 	0 	0 	
maximum concurrent accesses to same row:
dram[0]:         1         0         0         0         0         0         0         0         0        10         0         0         2         0         0         0 
dram[1]:         0         0         0         0         0         1         0         0         0         0        11         0         0         0         0         2 
dram[2]:         0         0         1         0         0         0         0         0         0        10         0         0         0         0         0         0 
dram[3]:         0         0         1         0         0         0         0         0         0         0         0        10         0         0         0         0 
dram[4]:         1         0         0         0         0         0         0         0         0         0         0         0         0         0         1         1 
dram[5]:         0         0         0         0         0         0         0         0         0         0         0         0         0         0         1         1 
dram[6]:         0         0         0         0         0         0         0         0         0         0         0         0         2         0         0         0 
dram[7]:         0         0         1         0         0         0         0         0         0         0         0         0         0         0         0         0 
dram[8]:         0         0         0         0         2         0         0         0         0         0         0         0         0         0         0         0 
dram[9]:         0         0         1         0         0         0         0         0         0         0         0         0         0         0         0         0 
dram[10]:         0         0         0         0         0         0         0         0        11         0         0         0         2         0         0         0 
maximum service time to same row:
dram[0]:    147751    183498    184262    184267    184656    184659         0         0      4581    137814     11447     11452     96084    164844    165058    165044 
dram[1]:    183502    183504    184159    184158    184672    114810     65670         0      4580      4581    126954     11459    164840    164843    165053    101055 
dram[2]:    183501    183504    136746    184047    184709    184714         0         0      4580     76138     11447     11452    164840    164844    165031    165044 
dram[3]:    183492    183495    137468    184063     82115    184714         0         0      4580      4584     11455     80736    164840    164843    165032    165045 
dram[4]:    101913    183499    184058    184061    184663    184670         0         0      4580      4584     11447     11452    164840    164844    164803    164255 
dram[5]:    183501    183504    184065    184077    184646    184652         0         0      4580      4584     11455     11459    164840    164843    150713    160206 
dram[6]:    183490    183492    184124    184152    184653    184668     82972         0      4580      4584     11447     11452     88762    164844    165056    165044 
dram[7]:    183495    183499    101768    184209    184694    184730         0         0      4580      4584     11455     11459    164840    164843    165038    165044 
dram[8]:    183492    183496    184108    184123    102622    184728     65672         0      4580      4584     11475     11479    164840    164844    165031    165044 
dram[9]:    183500    183504    135990    184165    184730    184735         0         0      4580      4584     11470     11473    164840    164843    165032    165044 
dram[10]:    183500    183504    184265    184269     57430    184683         0         0    125355      4582     11468     11472     82958    164844    165038    165044 
average row accesses per activate:
dram[0]:  9.000000 16.000000 16.000000 16.000000  3.000000  3.000000      -nan      -nan 10.000000  6.000000 16.000000 16.000000  9.000000 16.000000 16.000000 16.000000 
dram[1]: 16.000000 16.000000 16.000000 16.000000  3.000000  2.000000  2.000000      -nan 10.000000 10.000000  4.500000 16.000000 16.000000 16.000000 16.000000  9.000000 
dram[2]: 16.000000 16.000000  8.500000 16.000000  3.000000  3.000000      -nan      -nan 10.000000  5.500000 16.000000 16.000000 16.000000 16.000000 16.000000 16.000000 
dram[3]: 16.000000 16.000000  8.500000 16.000000  5.000000  3.000000      -nan      -nan 10.000000 10.000000 16.000000  6.000000 16.000000 16.000000 16.000000 16.000000 
dram[4]:  8.500000 16.000000 16.000000 16.000000  3.000000  3.000000      -nan      -nan 10.000000 10.000000 16.000000 16.000000 16.000000 16.000000  8.500000  8.500000 
dram[5]: 16.000000 16.000000 16.000000 16.000000  3.000000  3.000000      -nan      -nan 10.000000 10.000000 16.000000 16.000000 16.000000 16.000000  8.500000  8.500000 
dram[6]: 16.000000 16.000000 16.000000 16.000000  3.000000  3.000000  2.000000      -nan 10.000000 10.000000 16.000000 16.000000  9.000000 16.000000 16.000000 16.000000 
dram[7]: 16.000000 16.000000  8.500000 16.000000  3.000000  2.000000      -nan      -nan 10.000000 10.000000 16.000000 16.000000 16.000000 16.000000 16.000000 16.000000 
dram[8]: 16.000000 16.000000 16.000000 16.000000  2.000000  2.000000  2.000000      -nan 10.000000 10.000000 16.000000 16.000000 16.000000 16.000000 16.000000 16.000000 
dram[9]: 16.000000 16.000000  8.500000 16.000000  2.000000  2.000000      -nan      -nan 11.000000 11.000000 16.000000 16.000000 16.000000 16.000000 16.000000 16.000000 
dram[10]: 16.000000 16.000000 16.000000 16.000000  4.000000  2.000000      -nan      -nan  6.500000 11.000000 16.000000 16.000000  9.000000 16.000000 16.000000 16.000000 
average row locality = 2084/181 = 11.513812
number of total memory accesses made:
dram[0]:         0         0         0         0         0         0         0         0         0         0         0         0         0         0         0         0 
dram[1]:         0         0         0         0         0         0         0         0         0         0         0         0         0         0         0         0 
dram[2]:         0         0         0         0         0         0         0         0         0         0         0         0         0         0         0         0 
dram[3]:         0         0         0         0         0         0         0         0         0         0         0         0         0         0         0         0 
dram[4]:         0         0         0         0         0         0         0         0         0         0         0         0         0         0         0         0 
dram[5]:         0         0         0         0         0         0         0         0         0         0         0         0         0         0         0         0 
dram[6]:         0         0         0         0         0         0         0         0         0         0         0         0         0         0         0         0 
dram[7]:         0         0         0         0         0         0         0         0         0         0         0         0         0         0         0         0 
dram[8]:         0         0         0         0         0         0         0         0         0         0         0         0         0         0         0         0 
dram[9]:         0         0         0         0         0         0         0         0         0         0         0         0         0         0         0         0 
dram[10]:         0         0         0         0         0         0         0         0         0         0         0         0         0         0         0         0 
total accesses: 0
min_bank_accesses = 0!
min_chip_accesses = 0!
number of total read accesses:
dram[0]:        18        16        16        16         3         3         0         0        10        11        16        16        17        16        16        16 
dram[1]:        16        16        16        16         3         4         1         0        10        10        18        16        16        16        16        17 
dram[2]:        16        16        17        16         3         3         0         0        10        11        16        16        16        16        16        16 
dram[3]:        16        16        17        16         4         3         0         0        10        10        16        17        16        16        16        16 
dram[4]:        17        16        16        16         3         3         0         0        10        10        16        16        16        16        17        17 
dram[5]:        16        16        16        16         3         3         0         0        10        10        16        16        16        16        17        17 
dram[6]:        16        16        16        16         3         3         1         0        10        10        16        16        17        16        16        16 
dram[7]:        16        16        17        16         3         2         0         0        10        10        16        16        16        16        16        16 
dram[8]:        16        16        16        16         3         2         1         0        10        10        16        16        16        16        16        16 
dram[9]:        16        16        17        16         2         2         0         0        11        11        16        16        16        16        16        16 
dram[10]:        16        16        16        16         3         2         0         0        12        11        16        16        17        16        16        16 
total reads: 2071
min_bank_accesses = 0!
chip skew: 191/186 = 1.03
number of total write accesses:
dram[0]:         0         0         0         0         0         0         0         0         0         1         0         0         1         0         0         0 
dram[1]:         0         0         0         0         0         0         1         0         0         0         0         0         0         0         0         1 
dram[2]:         0         0         0         0         0         0         0         0         0         0         0         0         0         0         0         0 
dram[3]:         0         0         0         0         1         0         0         0         0         0         0         1         0         0         0         0 
dram[4]:         0         0         0         0         0         0         0         0         0         0         0         0         0         0         0         0 
dram[5]:         0         0         0         0         0         0         0         0         0         0         0         0         0         0         0         0 
dram[6]:         0         0         0         0         0         0         1         0         0         0         0         0         1         0         0         0 
dram[7]:         0         0         0         0         0         0         0         0         0         0         0         0         0         0         0         0 
dram[8]:         0         0         0         0         1         0         1         0         0         0         0         0         0         0         0         0 
dram[9]:         0         0         0         0         0         0         0         0         0         0         0         0         0         0         0         0 
dram[10]:         0         0         0         0         1         0         0         0         1         0         0         0         1         0         0         0 
total reads: 13
min_bank_accesses = 0!
min_chip_accesses = 0!
average mf latency per bank:
dram[0]:      21825     23414      1185      1153      1202      1160    none      none       25935     23921     31411     31468     45104     49521     38979     38966
dram[1]:      23443     23395      1171      1119      1169      8885      9089    none       25930     26005     29729     32077     49363     49476     38959     35730
dram[2]:      23415     23382      1099      1100      1258      1255    none      none       25928     26534     29428     29483     49335     49438     38862     38851
dram[3]:      23432     23388      1776      1107       802      1217    none      none       25939     25987     29441     26833     49324     49425     42670     42702
dram[4]:      22059     23396      1156      1124      1242      1183    none      none       25920     25971     29420     29464     49324     49402     40833     40830
dram[5]:      23410     23371      1156      1136      1191      1133    none      none       25917     25979     29420     29475     49268     49398     40787     40806
dram[6]:      23430     23380      1159      1141      1213      1178       170    none       25901     25970     30053     30098     42576     46207     43364     43361
dram[7]:      23434     23413      1144      1156      1135      1217    none      none       28645     28708     30075     30127     46107     46193     43349     43339
dram[8]:      18981     18983      1106      1081       731      1200      8662    none       28665     28754     30088     30126     46088     46189     43399     43378
dram[9]:      19004     18969      1082      1086      1275      1247    none      none       27488     27531     30085     30126     46079     46175     43375     43364
dram[10]:      18984     18934      1165      1136      3297      1162    none      none       24364     27509     30080     30130     41016     46287     43386     43381
maximum mf latency per bank:
dram[0]:      18192     18205       356       368       353       354         0         0     10608     27397     10680     10723     21279     13337     18334     18365
dram[1]:      18152     18163       360       364       352     31869     18179         0     10616     10630     10647     10689     13300     13318     18301     20137
dram[2]:      18149     18175       369       363       359       372         0         0     10607     32067     10648     10682     13306     13318     18268     18283
dram[3]:      18164     18198     10825       371       360       362         0         0     10612     10627     10645     11297     13300     13310     18309     18339
dram[4]:      18159     18181       365       371       352       355         0         0     10603     10616     10657     10691     13300     13301     18277     18308
dram[5]:      18169     18189       355       360       353       352         0         0     10607     10623     10640     10678     13300     13310     18268     18300
dram[6]:      18170     18183       360       373       352       350       341         0     10601     10618     10644     10682     27745     13322     18274     18306
dram[7]:      18158     18197       363       367       352       353         0         0     10616     10646     10643     10679     13300     13316     18256     18268
dram[8]:      18166     18213       365       366       362       352     17325         0     10633     10673     10670     10703     13300     13301     18291     18242
dram[9]:      18177     18204       352       359       363       366         0         0     10643     10643     10680     10705     13300     13316     18328     18353
dram[10]:      18175     18207       357       364     10795       367         0         0     14952     10662     10672     10706     13310     13326     18338     18369
Memory Partition 0: 
Cache L2_bank_000:
MSHR contents

Cache L2_bank_001:
MSHR contents

In Dram Latency Queue (total = 0): 
DRAM[0]: 16 bks, busW=4 BL=8 CL=12, tRRD=2 tCCD=6, tRCD=12 tRAS=28 tRP=12 tRC=40
n_cmd=343141 n_nop=342357 n_act=18 n_pre=4 n_req=192 n_rd=760 n_write=2 bw_util=0.004441
n_activity=2182 dram_eff=0.6984
bk0: 72a 342892i bk1: 64a 342893i bk2: 64a 343009i bk3: 64a 342961i bk4: 12a 343105i bk5: 12a 343103i bk6: 0a 343142i bk7: 0a 343146i bk8: 40a 343048i bk9: 44a 342946i bk10: 64a 342950i bk11: 64a 342854i bk12: 68a 342962i bk13: 64a 342881i bk14: 64a 342994i bk15: 64a 342886i 
dram_util_bins: 0 0 0 0 0 0 0 0 0 0
dram_eff_bins: 0 0 0 0 0 0 0 0 0 0
mrqq: max=15 avg=0.0145684
Memory Partition 1: 
Cache L2_bank_002:
MSHR contents

Cache L2_bank_003:
MSHR contents

In Dram Latency Queue (total = 0): 
DRAM[1]: 16 bks, busW=4 BL=8 CL=12, tRRD=2 tCCD=6, tRCD=12 tRAS=28 tRP=12 tRC=40
n_cmd=343141 n_nop=342350 n_act=20 n_pre=5 n_req=193 n_rd=764 n_write=2 bw_util=0.004465
n_activity=2195 dram_eff=0.6979
bk0: 64a 342959i bk1: 64a 342912i bk2: 64a 343000i bk3: 64a 342974i bk4: 12a 343107i bk5: 16a 343073i bk6: 4a 343115i bk7: 0a 343142i bk8: 40a 343052i bk9: 40a 342980i bk10: 72a 342887i bk11: 64a 342858i bk12: 64a 342997i bk13: 64a 342889i bk14: 64a 342997i bk15: 68a 342862i 
dram_util_bins: 0 0 0 0 0 0 0 0 0 0
dram_eff_bins: 0 0 0 0 0 0 0 0 0 0
mrqq: max=14 avg=0.0124905
Memory Partition 2: 
Cache L2_bank_004:
MSHR contents

Cache L2_bank_005:
MSHR contents

In Dram Latency Queue (total = 0): 
DRAM[2]: 16 bks, busW=4 BL=8 CL=12, tRRD=2 tCCD=6, tRCD=12 tRAS=28 tRP=12 tRC=40
n_cmd=343141 n_nop=342371 n_act=16 n_pre=2 n_req=188 n_rd=752 n_write=0 bw_util=0.004383
n_activity=2034 dram_eff=0.7394
bk0: 64a 342962i bk1: 64a 342913i bk2: 68a 342935i bk3: 64a 342966i bk4: 12a 343106i bk5: 12a 343090i bk6: 0a 343141i bk7: 0a 343143i bk8: 40a 343052i bk9: 44a 342950i bk10: 64a 342952i bk11: 64a 342860i bk12: 64a 342997i bk13: 64a 342889i bk14: 64a 343005i bk15: 64a 342914i 
dram_util_bins: 0 0 0 0 0 0 0 0 0 0
dram_eff_bins: 0 0 0 0 0 0 0 0 0 0
mrqq: max=13 avg=0.0113831
Memory Partition 3: 
Cache L2_bank_006:
MSHR contents

Cache L2_bank_007:
MSHR contents

In Dram Latency Queue (total = 0): 
DRAM[3]: 16 bks, busW=4 BL=8 CL=12, tRRD=2 tCCD=6, tRCD=12 tRAS=28 tRP=12 tRC=40
n_cmd=343141 n_nop=342363 n_act=17 n_pre=3 n_req=191 n_rd=756 n_write=2 bw_util=0.004418
n_activity=2083 dram_eff=0.7278
bk0: 64a 342927i bk1: 64a 342888i bk2: 68a 342974i bk3: 64a 342969i bk4: 16a 343094i bk5: 12a 343099i bk6: 0a 343142i bk7: 0a 343143i bk8: 40a 343053i bk9: 40a 342984i bk10: 64a 342975i bk11: 68a 342820i bk12: 64a 342992i bk13: 64a 342885i bk14: 64a 342985i bk15: 64a 342905i 
dram_util_bins: 0 0 0 0 0 0 0 0 0 0
dram_eff_bins: 0 0 0 0 0 0 0 0 0 0
mrqq: max=12 avg=0.0127236
Memory Partition 4: 
Cache L2_bank_008:
MSHR contents

Cache L2_bank_009:
MSHR contents

In Dram Latency Queue (total = 0): 
DRAM[4]: 16 bks, busW=4 BL=8 CL=12, tRRD=2 tCCD=6, tRCD=12 tRAS=28 tRP=12 tRC=40
n_cmd=343141 n_nop=342365 n_act=17 n_pre=3 n_req=189 n_rd=756 n_write=0 bw_util=0.004406
n_activity=2098 dram_eff=0.7207
bk0: 68a 342916i bk1: 64a 342892i bk2: 64a 343010i bk3: 64a 342959i bk4: 12a 343107i bk5: 12a 343104i bk6: 0a 343142i bk7: 0a 343142i bk8: 40a 343051i bk9: 40a 342985i bk10: 64a 342956i bk11: 64a 342853i bk12: 64a 342995i bk13: 64a 342889i bk14: 68a 342952i bk15: 68a 342862i 
dram_util_bins: 0 0 0 0 0 0 0 0 0 0
dram_eff_bins: 0 0 0 0 0 0 0 0 0 0
mrqq: max=14 avg=0.0126916
Memory Partition 5: 
Cache L2_bank_010:
MSHR contents

Cache L2_bank_011:
MSHR contents

In Dram Latency Queue (total = 0): 
DRAM[5]: 16 bks, busW=4 BL=8 CL=12, tRRD=2 tCCD=6, tRCD=12 tRAS=28 tRP=12 tRC=40
n_cmd=343141 n_nop=342371 n_act=16 n_pre=2 n_req=188 n_rd=752 n_write=0 bw_util=0.004383
n_activity=2054 dram_eff=0.7322
bk0: 64a 342942i bk1: 64a 342893i bk2: 64a 343007i bk3: 64a 342970i bk4: 12a 343106i bk5: 12a 343108i bk6: 0a 343142i bk7: 0a 343142i bk8: 40a 343050i bk9: 40a 342981i bk10: 64a 342964i bk11: 64a 342870i bk12: 64a 343005i bk13: 64a 342890i bk14: 68a 342961i bk15: 68a 342872i 
dram_util_bins: 0 0 0 0 0 0 0 0 0 0
dram_eff_bins: 0 0 0 0 0 0 0 0 0 0
mrqq: max=12 avg=0.0118785
Memory Partition 6: 
Cache L2_bank_012:
MSHR contents

Cache L2_bank_013:
MSHR contents

In Dram Latency Queue (total = 0): 
DRAM[6]: 16 bks, busW=4 BL=8 CL=12, tRRD=2 tCCD=6, tRCD=12 tRAS=28 tRP=12 tRC=40
n_cmd=343141 n_nop=342370 n_act=16 n_pre=1 n_req=190 n_rd=752 n_write=2 bw_util=0.004395
n_activity=2036 dram_eff=0.7407
bk0: 64a 342925i bk1: 64a 342877i bk2: 64a 342986i bk3: 64a 342938i bk4: 12a 343105i bk5: 12a 343105i bk6: 4a 343117i bk7: 0a 343142i bk8: 40a 343053i bk9: 40a 342988i bk10: 64a 342950i bk11: 64a 342854i bk12: 68a 342962i bk13: 64a 342887i bk14: 64a 342990i bk15: 64a 342858i 
dram_util_bins: 0 0 0 0 0 0 0 0 0 0
dram_eff_bins: 0 0 0 0 0 0 0 0 0 0
mrqq: max=13 avg=0.0134435
Memory Partition 7: 
Cache L2_bank_014:
MSHR contents

Cache L2_bank_015:
MSHR contents

In Dram Latency Queue (total = 0): 
DRAM[7]: 16 bks, busW=4 BL=8 CL=12, tRRD=2 tCCD=6, tRCD=12 tRAS=28 tRP=12 tRC=40
n_cmd=343141 n_nop=342381 n_act=15 n_pre=1 n_req=186 n_rd=744 n_write=0 bw_util=0.004336
n_activity=1962 dram_eff=0.7584
bk0: 64a 342936i bk1: 64a 342884i bk2: 68a 342976i bk3: 64a 342942i bk4: 12a 343106i bk5: 8a 343112i bk6: 0a 343138i bk7: 0a 343139i bk8: 40a 343050i bk9: 40a 342979i bk10: 64a 342951i bk11: 64a 342856i bk12: 64a 343006i bk13: 64a 342898i bk14: 64a 342996i bk15: 64a 342898i 
dram_util_bins: 0 0 0 0 0 0 0 0 0 0
dram_eff_bins: 0 0 0 0 0 0 0 0 0 0
mrqq: max=12 avg=0.0131753
Memory Partition 8: 
Cache L2_bank_016:
MSHR contents

Cache L2_bank_017:
MSHR contents

In Dram Latency Queue (total = 0): 
DRAM[8]: 16 bks, busW=4 BL=8 CL=12, tRRD=2 tCCD=6, tRCD=12 tRAS=28 tRP=12 tRC=40
n_cmd=343141 n_nop=342378 n_act=16 n_pre=1 n_req=188 n_rd=744 n_write=2 bw_util=0.004348
n_activity=1998 dram_eff=0.7467
bk0: 64a 342927i bk1: 64a 342877i bk2: 64a 343001i bk3: 64a 342962i bk4: 12a 343071i bk5: 8a 343106i bk6: 4a 343114i bk7: 0a 343140i bk8: 40a 343050i bk9: 40a 342981i bk10: 64a 342994i bk11: 64a 342890i bk12: 64a 342996i bk13: 64a 342900i bk14: 64a 342990i bk15: 64a 342888i 
dram_util_bins: 0 0 0 0 0 0 0 0 0 0
dram_eff_bins: 0 0 0 0 0 0 0 0 0 0
mrqq: max=12 avg=0.0128402
Memory Partition 9: 
Cache L2_bank_018:
MSHR contents

Cache L2_bank_019:
MSHR contents

In Dram Latency Queue (total = 0): 
DRAM[9]: 16 bks, busW=4 BL=8 CL=12, tRRD=2 tCCD=6, tRCD=12 tRAS=28 tRP=12 tRC=40
n_cmd=343141 n_nop=342377 n_act=15 n_pre=1 n_req=187 n_rd=748 n_write=0 bw_util=0.00436
n_activity=2001 dram_eff=0.7476
bk0: 64a 342942i bk1: 64a 342890i bk2: 68a 342983i bk3: 64a 342969i bk4: 8a 343113i bk5: 8a 343105i bk6: 0a 343140i bk7: 0a 343141i bk8: 44a 343035i bk9: 44a 342967i bk10: 64a 342980i bk11: 64a 342882i bk12: 64a 343006i bk13: 64a 342898i bk14: 64a 343004i bk15: 64a 342909i 
dram_util_bins: 0 0 0 0 0 0 0 0 0 0
dram_eff_bins: 0 0 0 0 0 0 0 0 0 0
mrqq: max=13 avg=0.0116133
Memory Partition 10: 
Cache L2_bank_020:
MSHR contents

Cache L2_bank_021:
MSHR contents

In Dram Latency Queue (total = 0): 
DRAM[10]: 16 bks, busW=4 BL=8 CL=12, tRRD=2 tCCD=6, tRCD=12 tRAS=28 tRP=12 tRC=40
n_cmd=343141 n_nop=342364 n_act=16 n_pre=2 n_req=192 n_rd=756 n_write=3 bw_util=0.004424
n_activity=2063 dram_eff=0.7358
bk0: 64a 342944i bk1: 64a 342919i bk2: 64a 343011i bk3: 64a 342969i bk4: 12a 343102i bk5: 8a 343102i bk6: 0a 343139i bk7: 0a 343142i bk8: 48a 343000i bk9: 44a 342965i bk10: 64a 342981i bk11: 64a 342877i bk12: 68a 342961i bk13: 64a 342890i bk14: 64a 342989i bk15: 64a 342899i 
dram_util_bins: 0 0 0 0 0 0 0 0 0 0
dram_eff_bins: 0 0 0 0 0 0 0 0 0 0
mrqq: max=13 avg=0.0125021

========= L2 cache stats =========
L2_cache_bank[0]: Access = 402, Miss = 96, Miss_rate = 0.239, Pending_hits = 305, Reservation_fails = 0
L2_cache_bank[1]: Access = 373, Miss = 94, Miss_rate = 0.252, Pending_hits = 275, Reservation_fails = 0
L2_cache_bank[2]: Access = 396, Miss = 96, Miss_rate = 0.242, Pending_hits = 279, Reservation_fails = 0
L2_cache_bank[3]: Access = 374, Miss = 95, Miss_rate = 0.254, Pending_hits = 275, Reservation_fails = 0
L2_cache_bank[4]: Access = 373, Miss = 94, Miss_rate = 0.252, Pending_hits = 277, Reservation_fails = 0
L2_cache_bank[5]: Access = 373, Miss = 94, Miss_rate = 0.252, Pending_hits = 273, Reservation_fails = 0
L2_cache_bank[6]: Access = 381, Miss = 95, Miss_rate = 0.249, Pending_hits = 277, Reservation_fails = 0
L2_cache_bank[7]: Access = 373, Miss = 94, Miss_rate = 0.252, Pending_hits = 273, Reservation_fails = 0
L2_cache_bank[8]: Access = 401, Miss = 95, Miss_rate = 0.237, Pending_hits = 304, Reservation_fails = 0
L2_cache_bank[9]: Access = 400, Miss = 94, Miss_rate = 0.235, Pending_hits = 301, Reservation_fails = 0
L2_cache_bank[10]: Access = 373, Miss = 94, Miss_rate = 0.252, Pending_hits = 279, Reservation_fails = 0
L2_cache_bank[11]: Access = 400, Miss = 94, Miss_rate = 0.235, Pending_hits = 303, Reservation_fails = 0
L2_cache_bank[12]: Access = 374, Miss = 95, Miss_rate = 0.254, Pending_hits = 274, Reservation_fails = 0
L2_cache_bank[13]: Access = 372, Miss = 93, Miss_rate = 0.250, Pending_hits = 273, Reservation_fails = 0
L2_cache_bank[14]: Access = 372, Miss = 94, Miss_rate = 0.253, Pending_hits = 278, Reservation_fails = 0
L2_cache_bank[15]: Access = 368, Miss = 92, Miss_rate = 0.250, Pending_hits = 274, Reservation_fails = 0
L2_cache_bank[16]: Access = 370, Miss = 94, Miss_rate = 0.254, Pending_hits = 272, Reservation_fails = 0
L2_cache_bank[17]: Access = 368, Miss = 92, Miss_rate = 0.250, Pending_hits = 269, Reservation_fails = 0
L2_cache_bank[18]: Access = 374, Miss = 94, Miss_rate = 0.251, Pending_hits = 277, Reservation_fails = 0
L2_cache_bank[19]: Access = 372, Miss = 93, Miss_rate = 0.250, Pending_hits = 273, Reservation_fails = 0
L2_cache_bank[20]: Access = 375, Miss = 96, Miss_rate = 0.256, Pending_hits = 277, Reservation_fails = 0
L2_cache_bank[21]: Access = 372, Miss = 93, Miss_rate = 0.250, Pending_hits = 276, Reservation_fails = 0
L2_total_cache_accesses = 8336
L2_total_cache_misses = 2071
L2_total_cache_miss_rate = 0.2484
L2_total_cache_pending_hits = 6164
L2_total_cache_reservation_fails = 0
L2_total_cache_breakdown:
	L2_cache_stats_breakdown[GLOBAL_ACC_R][HIT] = 99
	L2_cache_stats_breakdown[GLOBAL_ACC_R][HIT_RESERVED] = 6056
	L2_cache_stats_breakdown[GLOBAL_ACC_R][MISS] = 2053
	L2_cache_stats_breakdown[GLOBAL_ACC_R][RESERVATION_FAIL] = 0
	L2_cache_stats_breakdown[LOCAL_ACC_R][HIT] = 0
	L2_cache_stats_breakdown[LOCAL_ACC_R][HIT_RESERVED] = 0
	L2_cache_stats_breakdown[LOCAL_ACC_R][MISS] = 0
	L2_cache_stats_breakdown[LOCAL_ACC_R][RESERVATION_FAIL] = 0
	L2_cache_stats_breakdown[CONST_ACC_R][HIT] = 0
	L2_cache_stats_breakdown[CONST_ACC_R][HIT_RESERVED] = 27
	L2_cache_stats_breakdown[CONST_ACC_R][MISS] = 1
	L2_cache_stats_breakdown[CONST_ACC_R][RESERVATION_FAIL] = 0
	L2_cache_stats_breakdown[TEXTURE_ACC_R][HIT] = 0
	L2_cache_stats_breakdown[TEXTURE_ACC_R][HIT_RESERVED] = 0
	L2_cache_stats_breakdown[TEXTURE_ACC_R][MISS] = 0
	L2_cache_stats_breakdown[TEXTURE_ACC_R][RESERVATION_FAIL] = 0
	L2_cache_stats_breakdown[GLOBAL_ACC_W][HIT] = 2
	L2_cache_stats_breakdown[GLOBAL_ACC_W][HIT_RESERVED] = 0
	L2_cache_stats_breakdown[GLOBAL_ACC_W][MISS] = 13
	L2_cache_stats_breakdown[GLOBAL_ACC_W][RESERVATION_FAIL] = 0
	L2_cache_stats_breakdown[LOCAL_ACC_W][HIT] = 0
	L2_cache_stats_breakdown[LOCAL_ACC_W][HIT_RESERVED] = 0
	L2_cache_stats_breakdown[LOCAL_ACC_W][MISS] = 0
	L2_cache_stats_breakdown[LOCAL_ACC_W][RESERVATION_FAIL] = 0
	L2_cache_stats_breakdown[L1_WRBK_ACC][HIT] = 0
	L2_cache_stats_breakdown[L1_WRBK_ACC][HIT_RESERVED] = 0
	L2_cache_stats_breakdown[L1_WRBK_ACC][MISS] = 0
	L2_cache_stats_breakdown[L1_WRBK_ACC][RESERVATION_FAIL] = 0
	L2_cache_stats_breakdown[L2_WRBK_ACC][HIT] = 0
	L2_cache_stats_breakdown[L2_WRBK_ACC][HIT_RESERVED] = 0
	L2_cache_stats_breakdown[L2_WRBK_ACC][MISS] = 0
	L2_cache_stats_breakdown[L2_WRBK_ACC][RESERVATION_FAIL] = 0
	L2_cache_stats_breakdown[INST_ACC_R][HIT] = 0
	L2_cache_stats_breakdown[INST_ACC_R][HIT_RESERVED] = 81
	L2_cache_stats_breakdown[INST_ACC_R][MISS] = 4
	L2_cache_stats_breakdown[INST_ACC_R][RESERVATION_FAIL] = 0
	L2_cache_stats_breakdown[L1_WR_ALLOC_R][HIT] = 0
	L2_cache_stats_breakdown[L1_WR_ALLOC_R][HIT_RESERVED] = 0
	L2_cache_stats_breakdown[L1_WR_ALLOC_R][MISS] = 0
	L2_cache_stats_breakdown[L1_WR_ALLOC_R][RESERVATION_FAIL] = 0
	L2_cache_stats_breakdown[L2_WR_ALLOC_R][HIT] = 0
	L2_cache_stats_breakdown[L2_WR_ALLOC_R][HIT_RESERVED] = 0
	L2_cache_stats_breakdown[L2_WR_ALLOC_R][MISS] = 0
	L2_cache_stats_breakdown[L2_WR_ALLOC_R][RESERVATION_FAIL] = 0
	L2_cache_stats_breakdown[GLOBAL_ACC_R][TOTAL_ACCESS] = 8208
	L2_cache_stats_breakdown[CONST_ACC_R][TOTAL_ACCESS] = 28
	L2_cache_stats_breakdown[GLOBAL_ACC_W][TOTAL_ACCESS] = 15
	L2_cache_stats_breakdown[INST_ACC_R][TOTAL_ACCESS] = 85
L2_cache_data_port_util = 0.000
L2_cache_fill_port_util = 0.002

icnt_total_pkts_mem_to_simt=16940
icnt_total_pkts_simt_to_mem=8351
LD_mem_lat_dist  0 0 0 0 0 0 0 0 0 0 0 0 0 0 0 0 0 0 0 0 0 0 0 0 0 0 0
ST_mem_lat_dist  0 0 0 0 0 0 0 0 0 0 0 0 0 0 0 0 0 0 0 0 0 0 0 0 0 0 0
----------------------------Interconnect-DETAILS--------------------------------
Class 0:
Packet latency average = 21.511
	minimum = 6
	maximum = 96
Network latency average = 15.5411
	minimum = 6
	maximum = 60
Slowest packet = 27
Flit latency average = 14.4738
	minimum = 6
	maximum = 60
Slowest flit = 27
Fragmentation average = 0
	minimum = 0
	maximum = 0
Injected packet rate average = 0.000902179
	minimum = 0.000746765 (at node 10)
	maximum = 0.00108768 (at node 28)
Accepted packet rate average = 0.000902179
	minimum = 0.000746765 (at node 10)
	maximum = 0.00108768 (at node 28)
Injected flit rate average = 0.00136858
	minimum = 0.000746765 (at node 10)
	maximum = 0.00239723 (at node 36)
Accepted flit rate average= 0.00136858
	minimum = 0.000995687 (at node 43)
	maximum = 0.00194808 (at node 1)
Injected packet length average = 1.51697
Accepted packet length average = 1.51697
Total in-flight flits = 0 (0 measured)
====== Overall Traffic Statistics ======
====== Traffic class 0 ======
Packet latency average = 21.511 (1 samples)
	minimum = 6 (1 samples)
	maximum = 96 (1 samples)
Network latency average = 15.5411 (1 samples)
	minimum = 6 (1 samples)
	maximum = 60 (1 samples)
Flit latency average = 14.4738 (1 samples)
	minimum = 6 (1 samples)
	maximum = 60 (1 samples)
Fragmentation average = 0 (1 samples)
	minimum = 0 (1 samples)
	maximum = 0 (1 samples)
Injected packet rate average = 0.000902179 (1 samples)
	minimum = 0.000746765 (1 samples)
	maximum = 0.00108768 (1 samples)
Accepted packet rate average = 0.000902179 (1 samples)
	minimum = 0.000746765 (1 samples)
	maximum = 0.00108768 (1 samples)
Injected flit rate average = 0.00136858 (1 samples)
	minimum = 0.000746765 (1 samples)
	maximum = 0.00239723 (1 samples)
Accepted flit rate average = 0.00136858 (1 samples)
	minimum = 0.000995687 (1 samples)
	maximum = 0.00194808 (1 samples)
Injected packet size average = 1.51697 (1 samples)
Accepted packet size average = 1.51697 (1 samples)
Hops average = 1 (1 samples)
----------------------------END-of-Interconnect-DETAILS-------------------------


gpgpu_simulation_time = 0 days, 0 hrs, 2 min, 35 sec (155 sec)
gpgpu_simulation_rate = 32066 (inst/sec)
gpgpu_simulation_rate = 2641 (cycle/sec)
GPGPU-Sim uArch: Shader 3 bind to kernel 2 '_Z7Kernel2PbS_S_S_i'
GPGPU-Sim uArch: CTA/core = 4, limited by: threads
GPGPU-Sim uArch: Shader 4 bind to kernel 2 '_Z7Kernel2PbS_S_S_i'
GPGPU-Sim uArch: Shader 5 bind to kernel 2 '_Z7Kernel2PbS_S_S_i'
GPGPU-Sim uArch: Shader 6 bind to kernel 2 '_Z7Kernel2PbS_S_S_i'
GPGPU-Sim uArch: Shader 7 bind to kernel 2 '_Z7Kernel2PbS_S_S_i'
GPGPU-Sim uArch: Shader 8 bind to kernel 2 '_Z7Kernel2PbS_S_S_i'
GPGPU-Sim uArch: Shader 9 bind to kernel 2 '_Z7Kernel2PbS_S_S_i'
GPGPU-Sim uArch: Shader 10 bind to kernel 2 '_Z7Kernel2PbS_S_S_i'
GPGPU-Sim uArch: Shader 11 bind to kernel 2 '_Z7Kernel2PbS_S_S_i'
GPGPU-Sim uArch: Shader 12 bind to kernel 2 '_Z7Kernel2PbS_S_S_i'
GPGPU-Sim uArch: Shader 13 bind to kernel 2 '_Z7Kernel2PbS_S_S_i'
GPGPU-Sim uArch: Shader 14 bind to kernel 2 '_Z7Kernel2PbS_S_S_i'
GPGPU-Sim uArch: Shader 15 bind to kernel 2 '_Z7Kernel2PbS_S_S_i'
GPGPU-Sim uArch: Shader 16 bind to kernel 2 '_Z7Kernel2PbS_S_S_i'
GPGPU-Sim uArch: Shader 17 bind to kernel 2 '_Z7Kernel2PbS_S_S_i'
GPGPU-Sim uArch: Shader 18 bind to kernel 2 '_Z7Kernel2PbS_S_S_i'
GPGPU-Sim uArch: Shader 19 bind to kernel 2 '_Z7Kernel2PbS_S_S_i'
GPGPU-Sim uArch: Shader 20 bind to kernel 2 '_Z7Kernel2PbS_S_S_i'
GPGPU-Sim uArch: Shader 21 bind to kernel 2 '_Z7Kernel2PbS_S_S_i'
GPGPU-Sim uArch: Shader 22 bind to kernel 2 '_Z7Kernel2PbS_S_S_i'
GPGPU-Sim uArch: Shader 23 bind to kernel 2 '_Z7Kernel2PbS_S_S_i'
GPGPU-Sim uArch: Shader 24 bind to kernel 2 '_Z7Kernel2PbS_S_S_i'
GPGPU-Sim uArch: Shader 25 bind to kernel 2 '_Z7Kernel2PbS_S_S_i'
GPGPU-Sim uArch: Shader 26 bind to kernel 2 '_Z7Kernel2PbS_S_S_i'
GPGPU-Sim uArch: Shader 27 bind to kernel 2 '_Z7Kernel2PbS_S_S_i'
GPGPU-Sim uArch: Shader 0 bind to kernel 2 '_Z7Kernel2PbS_S_S_i'
GPGPU-Sim uArch: Shader 1 bind to kernel 2 '_Z7Kernel2PbS_S_S_i'
GPGPU-Sim uArch: Shader 2 bind to kernel 2 '_Z7Kernel2PbS_S_S_i'
Destroy streams for kernel 2: size 0
kernel_name = _Z7Kernel2PbS_S_S_i 
kernel_launch_uid = 2 
gpu_sim_cycle = 4197
gpu_sim_insn = 4446874
gpu_ipc =    1059.5364
gpu_tot_sim_cycle = 635831
gpu_tot_sim_insn = 9417112
gpu_tot_ipc =      14.8107
gpu_tot_issued_cta = 1022
max_total_param_size = 0
gpu_stall_dramfull = 199
gpu_stall_icnt2sh    = 14384
partiton_reqs_in_parallel = 92222
partiton_reqs_in_parallel_total    = 4065469
partiton_level_parallism =      21.9733
partiton_level_parallism_total  =       6.5390
partiton_reqs_in_parallel_util = 92222
partiton_reqs_in_parallel_util_total    = 4065469
gpu_sim_cycle_parition_util = 4197
gpu_tot_sim_cycle_parition_util    = 184798
partiton_level_parallism_util =      21.9733
partiton_level_parallism_util_total  =      21.9989
partiton_replys_in_parallel = 8255
partiton_replys_in_parallel_total    = 8336
L2_BW  =     186.4289 GB/Sec
L2_BW_total  =       2.4732 GB/Sec
gpu_total_sim_rate=56729

========= Core cache stats =========
L1I_cache:
	L1I_total_cache_accesses = 171793
	L1I_total_cache_misses = 5466
	L1I_total_cache_miss_rate = 0.0318
	L1I_total_cache_pending_hits = 0
	L1I_total_cache_reservation_fails = 16590
L1D_cache:
	L1D_cache_core[0]: Access = 0, Miss = 0, Miss_rate = -nan, Pending_hits = 0, Reservation_fails = 0
	L1D_cache_core[1]: Access = 0, Miss = 0, Miss_rate = -nan, Pending_hits = 0, Reservation_fails = 0
	L1D_cache_core[2]: Access = 0, Miss = 0, Miss_rate = -nan, Pending_hits = 0, Reservation_fails = 0
	L1D_cache_core[3]: Access = 0, Miss = 0, Miss_rate = -nan, Pending_hits = 0, Reservation_fails = 0
	L1D_cache_core[4]: Access = 0, Miss = 0, Miss_rate = -nan, Pending_hits = 0, Reservation_fails = 0
	L1D_cache_core[5]: Access = 0, Miss = 0, Miss_rate = -nan, Pending_hits = 0, Reservation_fails = 0
	L1D_cache_core[6]: Access = 0, Miss = 0, Miss_rate = -nan, Pending_hits = 0, Reservation_fails = 0
	L1D_cache_core[7]: Access = 0, Miss = 0, Miss_rate = -nan, Pending_hits = 0, Reservation_fails = 0
	L1D_cache_core[8]: Access = 0, Miss = 0, Miss_rate = -nan, Pending_hits = 0, Reservation_fails = 0
	L1D_cache_core[9]: Access = 0, Miss = 0, Miss_rate = -nan, Pending_hits = 0, Reservation_fails = 0
	L1D_cache_core[10]: Access = 0, Miss = 0, Miss_rate = -nan, Pending_hits = 0, Reservation_fails = 0
	L1D_cache_core[11]: Access = 0, Miss = 0, Miss_rate = -nan, Pending_hits = 0, Reservation_fails = 0
	L1D_cache_core[12]: Access = 0, Miss = 0, Miss_rate = -nan, Pending_hits = 0, Reservation_fails = 0
	L1D_cache_core[13]: Access = 0, Miss = 0, Miss_rate = -nan, Pending_hits = 0, Reservation_fails = 0
	L1D_cache_core[14]: Access = 0, Miss = 0, Miss_rate = -nan, Pending_hits = 0, Reservation_fails = 0
	L1D_cache_core[15]: Access = 0, Miss = 0, Miss_rate = -nan, Pending_hits = 0, Reservation_fails = 0
	L1D_cache_core[16]: Access = 0, Miss = 0, Miss_rate = -nan, Pending_hits = 0, Reservation_fails = 0
	L1D_cache_core[17]: Access = 0, Miss = 0, Miss_rate = -nan, Pending_hits = 0, Reservation_fails = 0
	L1D_cache_core[18]: Access = 0, Miss = 0, Miss_rate = -nan, Pending_hits = 0, Reservation_fails = 0
	L1D_cache_core[19]: Access = 0, Miss = 0, Miss_rate = -nan, Pending_hits = 0, Reservation_fails = 0
	L1D_cache_core[20]: Access = 0, Miss = 0, Miss_rate = -nan, Pending_hits = 0, Reservation_fails = 0
	L1D_cache_core[21]: Access = 0, Miss = 0, Miss_rate = -nan, Pending_hits = 0, Reservation_fails = 0
	L1D_cache_core[22]: Access = 0, Miss = 0, Miss_rate = -nan, Pending_hits = 0, Reservation_fails = 0
	L1D_cache_core[23]: Access = 0, Miss = 0, Miss_rate = -nan, Pending_hits = 0, Reservation_fails = 0
	L1D_cache_core[24]: Access = 0, Miss = 0, Miss_rate = -nan, Pending_hits = 0, Reservation_fails = 0
	L1D_cache_core[25]: Access = 0, Miss = 0, Miss_rate = -nan, Pending_hits = 0, Reservation_fails = 0
	L1D_cache_core[26]: Access = 0, Miss = 0, Miss_rate = -nan, Pending_hits = 0, Reservation_fails = 0
	L1D_cache_core[27]: Access = 0, Miss = 0, Miss_rate = -nan, Pending_hits = 0, Reservation_fails = 0
	L1D_total_cache_accesses = 0
	L1D_total_cache_misses = 0
	L1D_total_cache_pending_hits = 0
	L1D_total_cache_reservation_fails = 0
	L1D_cache_data_port_util = 0.000
	L1D_cache_fill_port_util = 0.000
L1C_cache:
	L1C_total_cache_accesses = 98112
	L1C_total_cache_misses = 1792
	L1C_total_cache_miss_rate = 0.0183
	L1C_total_cache_pending_hits = 0
	L1C_total_cache_reservation_fails = 4886
L1T_cache:
	L1T_total_cache_accesses = 0
	L1T_total_cache_misses = 0
	L1T_total_cache_pending_hits = 0
	L1T_total_cache_reservation_fails = 0

Total_core_cache_stats:
	Total_core_cache_stats_breakdown[GLOBAL_ACC_R][HIT] = 0
	Total_core_cache_stats_breakdown[GLOBAL_ACC_R][HIT_RESERVED] = 0
	Total_core_cache_stats_breakdown[GLOBAL_ACC_R][MISS] = 0
	Total_core_cache_stats_breakdown[GLOBAL_ACC_R][RESERVATION_FAIL] = 0
	Total_core_cache_stats_breakdown[LOCAL_ACC_R][HIT] = 0
	Total_core_cache_stats_breakdown[LOCAL_ACC_R][HIT_RESERVED] = 0
	Total_core_cache_stats_breakdown[LOCAL_ACC_R][MISS] = 0
	Total_core_cache_stats_breakdown[LOCAL_ACC_R][RESERVATION_FAIL] = 0
	Total_core_cache_stats_breakdown[CONST_ACC_R][HIT] = 96320
	Total_core_cache_stats_breakdown[CONST_ACC_R][HIT_RESERVED] = 0
	Total_core_cache_stats_breakdown[CONST_ACC_R][MISS] = 1792
	Total_core_cache_stats_breakdown[CONST_ACC_R][RESERVATION_FAIL] = 4886
	Total_core_cache_stats_breakdown[TEXTURE_ACC_R][HIT] = 0
	Total_core_cache_stats_breakdown[TEXTURE_ACC_R][HIT_RESERVED] = 0
	Total_core_cache_stats_breakdown[TEXTURE_ACC_R][MISS] = 0
	Total_core_cache_stats_breakdown[TEXTURE_ACC_R][RESERVATION_FAIL] = 0
	Total_core_cache_stats_breakdown[GLOBAL_ACC_W][HIT] = 0
	Total_core_cache_stats_breakdown[GLOBAL_ACC_W][HIT_RESERVED] = 0
	Total_core_cache_stats_breakdown[GLOBAL_ACC_W][MISS] = 0
	Total_core_cache_stats_breakdown[GLOBAL_ACC_W][RESERVATION_FAIL] = 0
	Total_core_cache_stats_breakdown[LOCAL_ACC_W][HIT] = 0
	Total_core_cache_stats_breakdown[LOCAL_ACC_W][HIT_RESERVED] = 0
	Total_core_cache_stats_breakdown[LOCAL_ACC_W][MISS] = 0
	Total_core_cache_stats_breakdown[LOCAL_ACC_W][RESERVATION_FAIL] = 0
	Total_core_cache_stats_breakdown[L1_WRBK_ACC][HIT] = 0
	Total_core_cache_stats_breakdown[L1_WRBK_ACC][HIT_RESERVED] = 0
	Total_core_cache_stats_breakdown[L1_WRBK_ACC][MISS] = 0
	Total_core_cache_stats_breakdown[L1_WRBK_ACC][RESERVATION_FAIL] = 0
	Total_core_cache_stats_breakdown[L2_WRBK_ACC][HIT] = 0
	Total_core_cache_stats_breakdown[L2_WRBK_ACC][HIT_RESERVED] = 0
	Total_core_cache_stats_breakdown[L2_WRBK_ACC][MISS] = 0
	Total_core_cache_stats_breakdown[L2_WRBK_ACC][RESERVATION_FAIL] = 0
	Total_core_cache_stats_breakdown[INST_ACC_R][HIT] = 166327
	Total_core_cache_stats_breakdown[INST_ACC_R][HIT_RESERVED] = 0
	Total_core_cache_stats_breakdown[INST_ACC_R][MISS] = 5466
	Total_core_cache_stats_breakdown[INST_ACC_R][RESERVATION_FAIL] = 16590
	Total_core_cache_stats_breakdown[L1_WR_ALLOC_R][HIT] = 0
	Total_core_cache_stats_breakdown[L1_WR_ALLOC_R][HIT_RESERVED] = 0
	Total_core_cache_stats_breakdown[L1_WR_ALLOC_R][MISS] = 0
	Total_core_cache_stats_breakdown[L1_WR_ALLOC_R][RESERVATION_FAIL] = 0
	Total_core_cache_stats_breakdown[L2_WR_ALLOC_R][HIT] = 0
	Total_core_cache_stats_breakdown[L2_WR_ALLOC_R][HIT_RESERVED] = 0
	Total_core_cache_stats_breakdown[L2_WR_ALLOC_R][MISS] = 0
	Total_core_cache_stats_breakdown[L2_WR_ALLOC_R][RESERVATION_FAIL] = 0
	Total_core_cache_stats_breakdown[CONST_ACC_R][TOTAL_ACCESS] = 98112
	Total_core_cache_stats_breakdown[INST_ACC_R][TOTAL_ACCESS] = 171793
Shader 0 warp_id issue ditsribution:
warp_id:
0, 1, 2, 3, 4, 5, 6, 7, 8, 9, 10, 11, 12, 13, 14, 15, 16, 17, 18, 19, 20, 21, 22, 23, 24, 25, 26, 27, 28, 29, 30, 31, 32, 33, 34, 35, 36, 37, 38, 39, 40, 41, 42, 43, 44, 45, 46, 47, 48, 49, 50, 51, 52, 53, 54, 55, 56, 57, 58, 59, 60, 61, 62, 63, 
distro:
[...]
F: 11924750----T: 11927355 	 St: c07cc000 Sz: 4096 	 Sm: 0 	 T: memcpy_h2d(1.758947)
F: 11924750----T: 11927355 	 St: c08cf000 Sz: 4096 	 Sm: 0 	 T: write_back(1.758947)
F: 11927355----T: 11929960 	 St: c0737000 Sz: 4096 	 Sm: 0 	 T: memcpy_h2d(1.758947)
F: 11927355----T: 11929960 	 St: c01ca000 Sz: 4096 	 Sm: 0 	 T: write_back(1.758947)
F: 11929960----T: 11932565 	 St: c0794000 Sz: 4096 	 Sm: 0 	 T: memcpy_h2d(1.758947)
F: 11929960----T: 11932565 	 St: c038f000 Sz: 4096 	 Sm: 0 	 T: write_back(1.758947)
F: 11932565----T: 11935170 	 St: c079b000 Sz: 4096 	 Sm: 0 	 T: memcpy_h2d(1.758947)
F: 11932565----T: 11935170 	 St: c0064000 Sz: 4096 	 Sm: 0 	 T: write_back(1.758947)
F: 11935170----T: 11937775 	 St: c076a000 Sz: 4096 	 Sm: 0 	 T: memcpy_h2d(1.758947)
F: 11935170----T: 11937775 	 St: c0109000 Sz: 4096 	 Sm: 0 	 T: write_back(1.758947)
F: 11937775----T: 11940380 	 St: c07f0000 Sz: 4096 	 Sm: 0 	 T: memcpy_h2d(1.758947)
F: 11937775----T: 11940380 	 St: c04b4000 Sz: 4096 	 Sm: 0 	 T: write_back(1.758947)
F: 11940380----T: 11942985 	 St: c0754000 Sz: 4096 	 Sm: 0 	 T: memcpy_h2d(1.758947)
F: 11940380----T: 11942985 	 St: c05fe000 Sz: 4096 	 Sm: 0 	 T: write_back(1.758947)
F: 11942985----T: 11945590 	 St: c078d000 Sz: 4096 	 Sm: 0 	 T: memcpy_h2d(1.758947)
F: 11942985----T: 11945590 	 St: c0015000 Sz: 4096 	 Sm: 0 	 T: write_back(1.758947)
F: 11945590----T: 11948195 	 St: c07cf000 Sz: 4096 	 Sm: 0 	 T: memcpy_h2d(1.758947)
F: 11945590----T: 11948195 	 St: c061b000 Sz: 4096 	 Sm: 0 	 T: write_back(1.758947)
F: 11948195----T: 11950800 	 St: c07ca000 Sz: 4096 	 Sm: 0 	 T: memcpy_h2d(1.758947)
F: 11948195----T: 11950800 	 St: c0602000 Sz: 4096 	 Sm: 0 	 T: write_back(1.758947)
F: 11950800----T: 11953405 	 St: c07ea000 Sz: 4096 	 Sm: 0 	 T: memcpy_h2d(1.758947)
F: 11950800----T: 11953405 	 St: c0891000 Sz: 4096 	 Sm: 0 	 T: write_back(1.758947)
F: 11953405----T: 11956010 	 St: c07aa000 Sz: 4096 	 Sm: 0 	 T: memcpy_h2d(1.758947)
F: 11953405----T: 11956010 	 St: c03b0000 Sz: 4096 	 Sm: 0 	 T: write_back(1.758947)
F: 11956010----T: 11958615 	 St: c07a2000 Sz: 4096 	 Sm: 0 	 T: memcpy_h2d(1.758947)
F: 11956010----T: 11958615 	 St: c0909000 Sz: 4096 	 Sm: 0 	 T: write_back(1.758947)
F: 11958615----T: 11961220 	 St: c07ec000 Sz: 4096 	 Sm: 0 	 T: memcpy_h2d(1.758947)
F: 11958615----T: 11961220 	 St: c006e000 Sz: 4096 	 Sm: 0 	 T: write_back(1.758947)
F: 11961220----T: 11963825 	 St: c07ed000 Sz: 4096 	 Sm: 0 	 T: memcpy_h2d(1.758947)
F: 11961220----T: 11963825 	 St: c08ff000 Sz: 4096 	 Sm: 0 	 T: write_back(1.758947)
F: 11963825----T: 11966430 	 St: c07a9000 Sz: 4096 	 Sm: 0 	 T: memcpy_h2d(1.758947)
F: 11963825----T: 11966430 	 St: c056b000 Sz: 4096 	 Sm: 0 	 T: write_back(1.758947)
F: 11966430----T: 11969035 	 St: c07b6000 Sz: 4096 	 Sm: 0 	 T: memcpy_h2d(1.758947)
F: 11966430----T: 11969035 	 St: c0842000 Sz: 4096 	 Sm: 0 	 T: write_back(1.758947)
F: 11969035----T: 11971640 	 St: c07b4000 Sz: 4096 	 Sm: 0 	 T: memcpy_h2d(1.758947)
F: 11969035----T: 11971640 	 St: c03f1000 Sz: 4096 	 Sm: 0 	 T: write_back(1.758947)
F: 11971640----T: 11974245 	 St: c015e000 Sz: 4096 	 Sm: 0 	 T: memcpy_h2d(1.758947)
F: 11971640----T: 11974245 	 St: c0091000 Sz: 4096 	 Sm: 0 	 T: write_back(1.758947)
F: 11974245----T: 11976850 	 St: c06d0000 Sz: 4096 	 Sm: 0 	 T: memcpy_h2d(1.758947)
F: 11974245----T: 11976850 	 St: c052c000 Sz: 4096 	 Sm: 0 	 T: write_back(1.758947)
F: 11976850----T: 11979455 	 St: c06dd000 Sz: 4096 	 Sm: 0 	 T: memcpy_h2d(1.758947)
F: 11976850----T: 11979455 	 St: c0675000 Sz: 4096 	 Sm: 0 	 T: write_back(1.758947)
F: 11979455----T: 11982060 	 St: c06cd000 Sz: 4096 	 Sm: 0 	 T: memcpy_h2d(1.758947)
F: 11979455----T: 11982060 	 St: c095a000 Sz: 4096 	 Sm: 0 	 T: write_back(1.758947)
F: 11982060----T: 11984665 	 St: c06df000 Sz: 4096 	 Sm: 0 	 T: memcpy_h2d(1.758947)
F: 11982060----T: 11984665 	 St: c002c000 Sz: 4096 	 Sm: 0 	 T: write_back(1.758947)
F: 11984665----T: 11987270 	 St: c0177000 Sz: 4096 	 Sm: 0 	 T: memcpy_h2d(1.758947)
F: 11984665----T: 11987270 	 St: c02f3000 Sz: 4096 	 Sm: 0 	 T: write_back(1.758947)
F: 11987270----T: 11989875 	 St: c0711000 Sz: 4096 	 Sm: 0 	 T: memcpy_h2d(1.758947)
F: 11987270----T: 11989875 	 St: c069d000 Sz: 4096 	 Sm: 0 	 T: write_back(1.758947)
F: 11989875----T: 11992480 	 St: c0723000 Sz: 4096 	 Sm: 0 	 T: memcpy_h2d(1.758947)
F: 11989875----T: 11992480 	 St: c01ee000 Sz: 4096 	 Sm: 0 	 T: write_back(1.758947)
F: 11992480----T: 11995085 	 St: c07df000 Sz: 4096 	 Sm: 0 	 T: memcpy_h2d(1.758947)
F: 11992480----T: 11995085 	 St: c07ee000 Sz: 4096 	 Sm: 0 	 T: write_back(1.758947)
F: 11995085----T: 11997690 	 St: c07d1000 Sz: 4096 	 Sm: 0 	 T: memcpy_h2d(1.758947)
F: 11995085----T: 11997690 	 St: c057e000 Sz: 4096 	 Sm: 0 	 T: write_back(1.758947)
F: 11997690----T: 12000295 	 St: c07dd000 Sz: 4096 	 Sm: 0 	 T: memcpy_h2d(1.758947)
F: 11997690----T: 12000295 	 St: c0942000 Sz: 4096 	 Sm: 0 	 T: write_back(1.758947)
F: 12000295----T: 12002900 	 St: c07d2000 Sz: 4096 	 Sm: 0 	 T: memcpy_h2d(1.758947)
F: 12000295----T: 12002900 	 St: c0456000 Sz: 4096 	 Sm: 0 	 T: write_back(1.758947)
F: 12002900----T: 12005505 	 St: c07e1000 Sz: 4096 	 Sm: 0 	 T: memcpy_h2d(1.758947)
F: 12002900----T: 12005505 	 St: c0314000 Sz: 4096 	 Sm: 0 	 T: write_back(1.758947)
F: 12005505----T: 12008110 	 St: c07e4000 Sz: 4096 	 Sm: 0 	 T: memcpy_h2d(1.758947)
F: 12005505----T: 12008110 	 St: c071e000 Sz: 4096 	 Sm: 0 	 T: write_back(1.758947)
F: 12008110----T: 12010715 	 St: c07d6000 Sz: 4096 	 Sm: 0 	 T: memcpy_h2d(1.758947)
F: 12008110----T: 12010715 	 St: c096c000 Sz: 4096 	 Sm: 0 	 T: write_back(1.758947)
F: 12010715----T: 12013320 	 St: c070f000 Sz: 4096 	 Sm: 0 	 T: memcpy_h2d(1.758947)
F: 12010715----T: 12013320 	 St: c014a000 Sz: 4096 	 Sm: 0 	 T: write_back(1.758947)
F: 12013320----T: 12015925 	 St: c076e000 Sz: 4096 	 Sm: 0 	 T: memcpy_h2d(1.758947)
F: 12013320----T: 12015925 	 St: c00f8000 Sz: 4096 	 Sm: 0 	 T: write_back(1.758947)
F: 12015925----T: 12018530 	 St: c0784000 Sz: 4096 	 Sm: 0 	 T: memcpy_h2d(1.758947)
F: 12015925----T: 12018530 	 St: c00eb000 Sz: 4096 	 Sm: 0 	 T: write_back(1.758947)
F: 12018530----T: 12021135 	 St: c07c5000 Sz: 4096 	 Sm: 0 	 T: memcpy_h2d(1.758947)
F: 12018530----T: 12021135 	 St: c0536000 Sz: 4096 	 Sm: 0 	 T: write_back(1.758947)
F: 12021135----T: 12023740 	 St: c07a4000 Sz: 4096 	 Sm: 0 	 T: memcpy_h2d(1.758947)
F: 12021135----T: 12023740 	 St: c0181000 Sz: 4096 	 Sm: 0 	 T: write_back(1.758947)
F: 12023740----T: 12026345 	 St: c07a5000 Sz: 4096 	 Sm: 0 	 T: memcpy_h2d(1.758947)
F: 12023740----T: 12026345 	 St: c071d000 Sz: 4096 	 Sm: 0 	 T: write_back(1.758947)
F: 12026345----T: 12028950 	 St: c0248000 Sz: 4096 	 Sm: 0 	 T: memcpy_h2d(1.758947)
F: 12026345----T: 12028950 	 St: c01e0000 Sz: 4096 	 Sm: 0 	 T: write_back(1.758947)
F: 12028951----T: 12031556 	 St: c06dc000 Sz: 4096 	 Sm: 0 	 T: memcpy_h2d(1.758947)
F: 12028951----T: 12031556 	 St: c0436000 Sz: 4096 	 Sm: 0 	 T: write_back(1.758947)
F: 12031807----T: 12034412 	 St: c0237000 Sz: 4096 	 Sm: 0 	 T: memcpy_h2d(1.758947)
F: 12031807----T: 12034412 	 St: c05fa000 Sz: 4096 	 Sm: 0 	 T: write_back(1.758947)
F: 12034412----T: 12037017 	 St: c01ee000 Sz: 4096 	 Sm: 0 	 T: memcpy_h2d(1.758947)
F: 12034412----T: 12037017 	 St: c0345000 Sz: 4096 	 Sm: 0 	 T: write_back(1.758947)
F: 12037017----T: 12039622 	 St: c01e7000 Sz: 4096 	 Sm: 0 	 T: memcpy_h2d(1.758947)
F: 12037017----T: 12039622 	 St: c017a000 Sz: 4096 	 Sm: 0 	 T: write_back(1.758947)
F: 12039622----T: 12042227 	 St: c01c6000 Sz: 4096 	 Sm: 0 	 T: memcpy_h2d(1.758947)
F: 12039622----T: 12042227 	 St: c010b000 Sz: 4096 	 Sm: 0 	 T: write_back(1.758947)
F: 12042227----T: 12044832 	 St: c01ea000 Sz: 4096 	 Sm: 0 	 T: memcpy_h2d(1.758947)
F: 12042227----T: 12044832 	 St: c0765000 Sz: 4096 	 Sm: 0 	 T: write_back(1.758947)
F: 12044832----T: 12047437 	 St: c01ca000 Sz: 4096 	 Sm: 0 	 T: memcpy_h2d(1.758947)
F: 12044832----T: 12047437 	 St: c099b000 Sz: 4096 	 Sm: 0 	 T: write_back(1.758947)
F: 12047437----T: 12050042 	 St: c01db000 Sz: 4096 	 Sm: 0 	 T: memcpy_h2d(1.758947)
F: 12047437----T: 12050042 	 St: c06e0000 Sz: 4096 	 Sm: 0 	 T: write_back(1.758947)
F: 12050042----T: 12052647 	 St: c01e9000 Sz: 4096 	 Sm: 0 	 T: memcpy_h2d(1.758947)
F: 12050042----T: 12052647 	 St: c03e4000 Sz: 4096 	 Sm: 0 	 T: write_back(1.758947)
F: 12052647----T: 12055252 	 St: c01e0000 Sz: 4096 	 Sm: 0 	 T: memcpy_h2d(1.758947)
F: 12052647----T: 12055252 	 St: c00ce000 Sz: 4096 	 Sm: 0 	 T: write_back(1.758947)
F: 12055252----T: 12057857 	 St: c0842000 Sz: 4096 	 Sm: 0 	 T: memcpy_h2d(1.758947)
F: 12055252----T: 12057857 	 St: c06c5000 Sz: 4096 	 Sm: 0 	 T: write_back(1.758947)
F: 12057857----T: 12060462 	 St: c0870000 Sz: 4096 	 Sm: 0 	 T: memcpy_h2d(1.758947)
F: 12057857----T: 12060462 	 St: c0177000 Sz: 4096 	 Sm: 0 	 T: write_back(1.758947)
F: 12060462----T: 12063067 	 St: c0873000 Sz: 4096 	 Sm: 0 	 T: memcpy_h2d(1.758947)
F: 12060462----T: 12063067 	 St: c0490000 Sz: 4096 	 Sm: 0 	 T: write_back(1.758947)
F: 12063067----T: 12065672 	 St: c0827000 Sz: 4096 	 Sm: 0 	 T: memcpy_h2d(1.758947)
F: 12063067----T: 12065672 	 St: c0933000 Sz: 4096 	 Sm: 0 	 T: write_back(1.758947)
F: 12065672----T: 12068277 	 St: c0816000 Sz: 4096 	 Sm: 0 	 T: memcpy_h2d(1.758947)
F: 12065672----T: 12068277 	 St: c070d000 Sz: 4096 	 Sm: 0 	 T: write_back(1.758947)
F: 12068277----T: 12070882 	 St: c0883000 Sz: 4096 	 Sm: 0 	 T: memcpy_h2d(1.758947)
F: 12068277----T: 12070882 	 St: c031f000 Sz: 4096 	 Sm: 0 	 T: write_back(1.758947)
F: 12070882----T: 12073487 	 St: c0843000 Sz: 4096 	 Sm: 0 	 T: memcpy_h2d(1.758947)
F: 12070882----T: 12073487 	 St: c041d000 Sz: 4096 	 Sm: 0 	 T: write_back(1.758947)
F: 12073487----T: 12076092 	 St: c0875000 Sz: 4096 	 Sm: 0 	 T: memcpy_h2d(1.758947)
F: 12073487----T: 12076092 	 St: c020d000 Sz: 4096 	 Sm: 0 	 T: write_back(1.758947)
F: 12076092----T: 12078697 	 St: c083b000 Sz: 4096 	 Sm: 0 	 T: memcpy_h2d(1.758947)
F: 12076092----T: 12078697 	 St: c04b3000 Sz: 4096 	 Sm: 0 	 T: write_back(1.758947)
F: 12078697----T: 12081302 	 St: c0829000 Sz: 4096 	 Sm: 0 	 T: memcpy_h2d(1.758947)
F: 12078697----T: 12081302 	 St: c0946000 Sz: 4096 	 Sm: 0 	 T: write_back(1.758947)
F: 12081302----T: 12083907 	 St: c0838000 Sz: 4096 	 Sm: 0 	 T: memcpy_h2d(1.758947)
F: 12081302----T: 12083907 	 St: c0340000 Sz: 4096 	 Sm: 0 	 T: write_back(1.758947)
F: 12083907----T: 12086512 	 St: c085c000 Sz: 4096 	 Sm: 0 	 T: memcpy_h2d(1.758947)
F: 12083907----T: 12086512 	 St: c03d7000 Sz: 4096 	 Sm: 0 	 T: write_back(1.758947)
F: 12086512----T: 12089117 	 St: c0893000 Sz: 4096 	 Sm: 0 	 T: memcpy_h2d(1.758947)
F: 12086512----T: 12089117 	 St: c0441000 Sz: 4096 	 Sm: 0 	 T: write_back(1.758947)
F: 12089117----T: 12091722 	 St: c081c000 Sz: 4096 	 Sm: 0 	 T: memcpy_h2d(1.758947)
F: 12089117----T: 12091722 	 St: c02f1000 Sz: 4096 	 Sm: 0 	 T: write_back(1.758947)
F: 12091722----T: 12094327 	 St: c084e000 Sz: 4096 	 Sm: 0 	 T: memcpy_h2d(1.758947)
F: 12091722----T: 12094327 	 St: c061f000 Sz: 4096 	 Sm: 0 	 T: write_back(1.758947)
F: 12094327----T: 12096932 	 St: c08a6000 Sz: 4096 	 Sm: 0 	 T: memcpy_h2d(1.758947)
F: 12094327----T: 12096932 	 St: c0785000 Sz: 4096 	 Sm: 0 	 T: write_back(1.758947)
F: 12096932----T: 12099537 	 St: c0894000 Sz: 4096 	 Sm: 0 	 T: memcpy_h2d(1.758947)
F: 12096932----T: 12099537 	 St: c02f4000 Sz: 4096 	 Sm: 0 	 T: write_back(1.758947)
F: 12099537----T: 12102142 	 St: c0889000 Sz: 4096 	 Sm: 0 	 T: memcpy_h2d(1.758947)
F: 12099537----T: 12102142 	 St: c061c000 Sz: 4096 	 Sm: 0 	 T: write_back(1.758947)
F: 12102142----T: 12104747 	 St: c0891000 Sz: 4096 	 Sm: 0 	 T: memcpy_h2d(1.758947)
F: 12102142----T: 12104747 	 St: c05e6000 Sz: 4096 	 Sm: 0 	 T: write_back(1.758947)
F: 12104747----T: 12107352 	 St: c0886000 Sz: 4096 	 Sm: 0 	 T: memcpy_h2d(1.758947)
F: 12104747----T: 12107352 	 St: c075b000 Sz: 4096 	 Sm: 0 	 T: write_back(1.758947)
F: 12107352----T: 12109957 	 St: c0858000 Sz: 4096 	 Sm: 0 	 T: memcpy_h2d(1.758947)
F: 12107352----T: 12109957 	 St: c03c2000 Sz: 4096 	 Sm: 0 	 T: write_back(1.758947)
F: 12109957----T: 12112562 	 St: c0800000 Sz: 4096 	 Sm: 0 	 T: memcpy_h2d(1.758947)
F: 12109957----T: 12112562 	 St: c003f000 Sz: 4096 	 Sm: 0 	 T: write_back(1.758947)
F: 12112562----T: 12115167 	 St: c08ba000 Sz: 4096 	 Sm: 0 	 T: memcpy_h2d(1.758947)
F: 12112562----T: 12115167 	 St: c0197000 Sz: 4096 	 Sm: 0 	 T: write_back(1.758947)
F: 12115167----T: 12117772 	 St: c0851000 Sz: 4096 	 Sm: 0 	 T: memcpy_h2d(1.758947)
F: 12115167----T: 12117772 	 St: c0548000 Sz: 4096 	 Sm: 0 	 T: write_back(1.758947)
F: 12117772----T: 12120377 	 St: c08b9000 Sz: 4096 	 Sm: 0 	 T: memcpy_h2d(1.758947)
F: 12117772----T: 12120377 	 St: c0301000 Sz: 4096 	 Sm: 0 	 T: write_back(1.758947)
F: 12120377----T: 12122982 	 St: c0868000 Sz: 4096 	 Sm: 0 	 T: memcpy_h2d(1.758947)
F: 12120377----T: 12122982 	 St: c0042000 Sz: 4096 	 Sm: 0 	 T: write_back(1.758947)
F: 12122982----T: 12125587 	 St: c0860000 Sz: 4096 	 Sm: 0 	 T: memcpy_h2d(1.758947)
F: 12122982----T: 12125587 	 St: c091b000 Sz: 4096 	 Sm: 0 	 T: write_back(1.758947)
F: 12125587----T: 12128192 	 St: c08b0000 Sz: 4096 	 Sm: 0 	 T: memcpy_h2d(1.758947)
F: 12125587----T: 12128192 	 St: c0354000 Sz: 4096 	 Sm: 0 	 T: write_back(1.758947)
F: 12128192----T: 12130797 	 St: c0865000 Sz: 4096 	 Sm: 0 	 T: memcpy_h2d(1.758947)
F: 12128192----T: 12130797 	 St: c00a8000 Sz: 4096 	 Sm: 0 	 T: write_back(1.758947)
F: 12130797----T: 12133402 	 St: c08a0000 Sz: 4096 	 Sm: 0 	 T: memcpy_h2d(1.758947)
F: 12130797----T: 12133402 	 St: c0462000 Sz: 4096 	 Sm: 0 	 T: write_back(1.758947)
F: 12133402----T: 12136007 	 St: c08ab000 Sz: 4096 	 Sm: 0 	 T: memcpy_h2d(1.758947)
F: 12133402----T: 12136007 	 St: c0033000 Sz: 4096 	 Sm: 0 	 T: write_back(1.758947)
F: 12136007----T: 12138612 	 St: c08ad000 Sz: 4096 	 Sm: 0 	 T: memcpy_h2d(1.758947)
F: 12136007----T: 12138612 	 St: c033b000 Sz: 4096 	 Sm: 0 	 T: write_back(1.758947)
F: 12138612----T: 12141217 	 St: c08bb000 Sz: 4096 	 Sm: 0 	 T: memcpy_h2d(1.758947)
F: 12138612----T: 12141217 	 St: c015e000 Sz: 4096 	 Sm: 0 	 T: write_back(1.758947)
F: 12141217----T: 12143822 	 St: c07ff000 Sz: 4096 	 Sm: 0 	 T: memcpy_h2d(1.758947)
F: 12141217----T: 12143822 	 St: c001a000 Sz: 4096 	 Sm: 0 	 T: write_back(1.758947)
F: 12143822----T: 12146427 	 St: c07f8000 Sz: 4096 	 Sm: 0 	 T: memcpy_h2d(1.758947)
F: 12143822----T: 12146427 	 St: c060f000 Sz: 4096 	 Sm: 0 	 T: write_back(1.758947)
F: 12146427----T: 12149032 	 St: c088a000 Sz: 4096 	 Sm: 0 	 T: memcpy_h2d(1.758947)
F: 12146427----T: 12149032 	 St: c06f0000 Sz: 4096 	 Sm: 0 	 T: write_back(1.758947)
F: 12149033----T: 12151638 	 St: c0814000 Sz: 4096 	 Sm: 0 	 T: memcpy_h2d(1.758947)
F: 12149033----T: 12151638 	 St: c01e9000 Sz: 4096 	 Sm: 0 	 T: write_back(1.758947)
F: 12375584----T: 12406344 	 	 	 Kl: 20 	 Sm: 0 	 T: kernel_launch(20.769751)
F: 12375922----T: 12378527 	 St: c0242000 Sz: 4096 	 Sm: 0 	 T: memcpy_h2d(1.758947)
F: 12375922----T: 12378527 	 St: c0078000 Sz: 4096 	 Sm: 0 	 T: write_back(1.758947)
F: 12378527----T: 12381132 	 St: c0243000 Sz: 4096 	 Sm: 0 	 T: memcpy_h2d(1.758947)
F: 12378527----T: 12381132 	 St: c06c3000 Sz: 4096 	 Sm: 0 	 T: write_back(1.758947)
F: 12381132----T: 12383737 	 St: c0245000 Sz: 4096 	 Sm: 0 	 T: memcpy_h2d(1.758947)
F: 12381132----T: 12383737 	 St: c05ed000 Sz: 4096 	 Sm: 0 	 T: write_back(1.758947)
F: 12383737----T: 12386342 	 St: c0249000 Sz: 4096 	 Sm: 0 	 T: memcpy_h2d(1.758947)
F: 12383737----T: 12386342 	 St: c042e000 Sz: 4096 	 Sm: 0 	 T: write_back(1.758947)
F: 12386343----T: 12388948 	 St: c024d000 Sz: 4096 	 Sm: 0 	 T: memcpy_h2d(1.758947)
F: 12386343----T: 12388948 	 St: c07ef000 Sz: 4096 	 Sm: 0 	 T: write_back(1.758947)
F: 12389242----T: 12391847 	 St: c0250000 Sz: 4096 	 Sm: 0 	 T: memcpy_h2d(1.758947)
F: 12389242----T: 12391847 	 St: c00a2000 Sz: 4096 	 Sm: 0 	 T: write_back(1.758947)
F: 12391847----T: 12394452 	 St: c0257000 Sz: 4096 	 Sm: 0 	 T: memcpy_h2d(1.758947)
F: 12391847----T: 12394452 	 St: c0412000 Sz: 4096 	 Sm: 0 	 T: write_back(1.758947)
F: 12394453----T: 12397058 	 St: c025b000 Sz: 4096 	 Sm: 0 	 T: memcpy_h2d(1.758947)
F: 12394453----T: 12397058 	 St: c06ea000 Sz: 4096 	 Sm: 0 	 T: write_back(1.758947)
F: 12397399----T: 12400004 	 St: c025c000 Sz: 4096 	 Sm: 0 	 T: memcpy_h2d(1.758947)
F: 12397399----T: 12400004 	 St: c04a6000 Sz: 4096 	 Sm: 0 	 T: write_back(1.758947)
F: 12400005----T: 12402610 	 St: c0263000 Sz: 4096 	 Sm: 0 	 T: memcpy_h2d(1.758947)
F: 12400005----T: 12402610 	 St: c01ec000 Sz: 4096 	 Sm: 0 	 T: write_back(1.758947)
F: 12403054----T: 12405659 	 St: c0272000 Sz: 4096 	 Sm: 0 	 T: memcpy_h2d(1.758947)
F: 12403054----T: 12405659 	 St: c0991000 Sz: 4096 	 Sm: 0 	 T: write_back(1.758947)
F: 12406344----T: 12408879 	 St: 80000000 Sz: 1 	 Sm: 0 	 T: memcpy_d2h(1.711681)
F: 12408880----T: 12411415 	 St: 80000000 Sz: 1 	 Sm: 0 	 T: memcpy_h2d(1.711681)
F: 12633566----T: 12648452 	 	 	 Kl: 21 	 Sm: 0 	 T: kernel_launch(10.051316)
F: 12634020----T: 12636625 	 St: c020a000 Sz: 4096 	 Sm: 0 	 T: memcpy_h2d(1.758947)
F: 12634020----T: 12636625 	 St: c04a5000 Sz: 4096 	 Sm: 0 	 T: write_back(1.758947)
F: 12636625----T: 12639230 	 St: c020d000 Sz: 4096 	 Sm: 0 	 T: memcpy_h2d(1.758947)
F: 12636625----T: 12639230 	 St: c08a8000 Sz: 4096 	 Sm: 0 	 T: write_back(1.758947)
F: 12639231----T: 12641836 	 St: c0380000 Sz: 4096 	 Sm: 0 	 T: memcpy_h2d(1.758947)
F: 12639231----T: 12641836 	 St: c093e000 Sz: 4096 	 Sm: 0 	 T: write_back(1.758947)
F: 12642128----T: 12644733 	 St: c0211000 Sz: 4096 	 Sm: 0 	 T: memcpy_h2d(1.758947)
F: 12642128----T: 12644733 	 St: c055b000 Sz: 4096 	 Sm: 0 	 T: write_back(1.758947)
F: 12870602----T: 12873797 	 	 	 Kl: 22 	 Sm: 0 	 T: kernel_launch(2.157326)
F: 12873797----T: 12876332 	 St: 80000000 Sz: 1 	 Sm: 0 	 T: memcpy_d2h(1.711681)
F: 12876333----T: 12878938 	 St: 0 Sz: 4096 	 Sm: 0 	 T: device_sync(1.758947)
F: 12876333----T: 12884573 	 St: 0 Sz: 61440 	 Sm: 0 	 T: device_sync(5.563808)
F: 12887178----T: 12889783 	 St: 0 Sz: 4096 	 Sm: 0 	 T: device_sync(1.758947)
F: 12887178----T: 12895418 	 St: 0 Sz: 61440 	 Sm: 0 	 T: device_sync(5.563808)
F: 12898023----T: 12900628 	 St: 0 Sz: 4096 	 Sm: 0 	 T: device_sync(1.758947)
F: 12898023----T: 12913718 	 St: 0 Sz: 126976 	 Sm: 0 	 T: device_sync(10.597569)
F: 12916323----T: 12918928 	 St: 0 Sz: 4096 	 Sm: 0 	 T: device_sync(1.758947)
F: 12916323----T: 12947046 	 St: 0 Sz: 258048 	 Sm: 0 	 T: device_sync(20.744766)
F: 12949651----T: 12952256 	 St: 0 Sz: 4096 	 Sm: 0 	 T: device_sync(1.758947)
F: 12949651----T: 13010487 	 St: 0 Sz: 520192 	 Sm: 0 	 T: device_sync(41.077652)
F: 13013092----T: 13015697 	 St: 0 Sz: 4096 	 Sm: 0 	 T: device_sync(1.758947)
F: 13013092----T: 13134181 	 St: 0 Sz: 1044480 	 Sm: 0 	 T: device_sync(81.761650)
F: 13136786----T: 13139391 	 St: 0 Sz: 4096 	 Sm: 0 	 T: device_sync(1.758947)
F: 13136786----T: 13145026 	 St: 0 Sz: 61440 	 Sm: 0 	 T: device_sync(5.563808)
F: 13147631----T: 13150236 	 St: 0 Sz: 4096 	 Sm: 0 	 T: device_sync(1.758947)
F: 13147631----T: 13155871 	 St: 0 Sz: 61440 	 Sm: 0 	 T: device_sync(5.563808)
F: 13158476----T: 13161081 	 St: 0 Sz: 4096 	 Sm: 0 	 T: device_sync(1.758947)
F: 13158476----T: 13174171 	 St: 0 Sz: 126976 	 Sm: 0 	 T: device_sync(10.597569)
F: 13176776----T: 13179381 	 St: 0 Sz: 4096 	 Sm: 0 	 T: device_sync(1.758947)
F: 13176776----T: 13198569 	 St: 0 Sz: 180224 	 Sm: 0 	 T: device_sync(14.715057)
Tot_prefetch_time: 0(cycle), 0.000000(us)
Tot_kernel_exec_time: 7933241(cycle), 5356.678711(us)
Tot_kernel_exec_time_and_fault_time: 165482021(cycle), 111736.671875(us)
Tot_memcpy_h2d_time: 7385091(cycle), 4986.557129(us)
Tot_memcpy_d2h_time: 27885(cycle), 18.828495(us)
Tot_memcpy_time: 7412976(cycle), 5005.385742(us)
Tot_devicesync_time: 324841(cycle), 219.338959(us)
Tot_writeback_time: 6611490(cycle), 4464.206543(us)
Tot_dma_time: 0(cycle), 0.000000(us)
Tot_memcpy_d2h_sync_wb_time: 6964216(cycle), 4702.374023(us)
GPGPU-Sim: *** exit detected ***
