

        *** GPGPU-Sim Simulator Version 3.2.2  [build gpgpu-sim_git-commit-a9062585c7d8c1292454d5112e137c93a1d88fca_modified_3] ***


GPGPU-Sim PTX: simulation mode 0 (can change with PTX_SIM_MODE_FUNC environment variable:
               1=functional simulation only, 0=detailed performance simulator)
GPGPU-Sim: Configuration options:

-network_mode                           1 # Interconnection network mode
-inter_config_file   config_fermi_islip.icnt # Interconnection network config file
-gpgpu_ptx_use_cuobjdump                    1 # Use cuobjdump to extract ptx and sass from binaries
-gpgpu_experimental_lib_support                    0 # Try to extract code from cuda libraries [Broken because of unknown cudaGetExportTable]
-gpgpu_ptx_convert_to_ptxplus                    0 # Convert SASS (native ISA) to ptxplus and run ptxplus
-gpgpu_ptx_force_max_capability                   20 # Force maximum compute capability
-gpgpu_ptx_inst_debug_to_file                    0 # Dump executed instructions' debug information to file
-gpgpu_ptx_inst_debug_file       inst_debug.txt # Executed instructions' debug output file
-gpgpu_ptx_inst_debug_thread_uid                    1 # Thread UID for executed instructions' debug output
-gpgpu_simd_model                       1 # 1 = post-dominator
-gpgpu_shader_core_pipeline              2048:32 # shader core pipeline config, i.e., {<nthread>:<warpsize>}
-gpgpu_tex_cache:l1  16:128:24,L:R:m:N:L,F:128:4,128:2 # per-shader L1 texture cache  (READ-ONLY) config  {<nsets>:<bsize>:<assoc>,<rep>:<wr>:<alloc>:<wr_alloc>,<mshr>:<N>:<merge>,<mq>:<rf>}
-gpgpu_const_cache:l1 128:64:2,L:R:f:N:L,A:2:64,4 # per-shader L1 constant memory cache  (READ-ONLY) config  {<nsets>:<bsize>:<assoc>,<rep>:<wr>:<alloc>:<wr_alloc>,<mshr>:<N>:<merge>,<mq>} 
-gpgpu_cache:il1     8:128:4,L:R:f:N:L,A:2:48,4 # shader L1 instruction cache config  {<nsets>:<bsize>:<assoc>,<rep>:<wr>:<alloc>:<wr_alloc>,<mshr>:<N>:<merge>,<mq>} 
-gpgpu_cache:dl1     64:128:6,L:L:m:N:H,A:128:8,8 # per-shader L1 data cache config  {<nsets>:<bsize>:<assoc>,<rep>:<wr>:<alloc>:<wr_alloc>,<mshr>:<N>:<merge>,<mq> | none}
-gpgpu_cache:dl1PrefL1                 none # per-shader L1 data cache config  {<nsets>:<bsize>:<assoc>,<rep>:<wr>:<alloc>:<wr_alloc>,<mshr>:<N>:<merge>,<mq> | none}
-gpgpu_cache:dl1PrefShared                 none # per-shader L1 data cache config  {<nsets>:<bsize>:<assoc>,<rep>:<wr>:<alloc>:<wr_alloc>,<mshr>:<N>:<merge>,<mq> | none}
-gmem_skip_L1D                          1 # global memory access skip L1D cache (implements -Xptxas -dlcm=cg, default=no skip)
-gpgpu_perfect_mem                      0 # enable perfect memory mode (no cache miss)
-n_regfile_gating_group                    4 # group of lanes that should be read/written together)
-gpgpu_clock_gated_reg_file                    0 # enable clock gated reg file for power calculations
-gpgpu_clock_gated_lanes                    0 # enable clock gated lanes for power calculations
-gpgpu_shader_registers                65536 # Number of registers per shader core. Limits number of concurrent CTAs. (default 8192)
-gpgpu_shader_cta                      32 # Maximum number of concurrent CTAs in shader (default 8)
-gpgpu_num_cta_barriers                   16 # Maximum number of named barriers per CTA (default 16)
-gpgpu_n_clusters                      28 # number of processing clusters
-gpgpu_n_cores_per_cluster                    1 # number of simd cores per cluster
-gpgpu_n_cluster_ejection_buffer_size                    8 # number of packets in ejection buffer
-gpgpu_n_ldst_response_buffer_size                    2 # number of response packets in ld/st unit ejection buffer
-gpgpu_shmem_size                   16384 # Size of shared memory per shader core (default 16kB)
-gpgpu_shmem_size                   98304 # Size of shared memory per shader core (default 16kB)
-gpgpu_shmem_size_PrefL1                16384 # Size of shared memory per shader core (default 16kB)
-gpgpu_shmem_size_PrefShared                16384 # Size of shared memory per shader core (default 16kB)
-gpgpu_shmem_num_banks                   32 # Number of banks in the shared memory in each shader core (default 16)
-gpgpu_shmem_limited_broadcast                    0 # Limit shared memory to do one broadcast per cycle (default on)
-gpgpu_shmem_warp_parts                    1 # Number of portions a warp is divided into for shared memory bank conflict check 
-gpgpu_warpdistro_shader                   -1 # Specify which shader core to collect the warp size distribution from
-gpgpu_warp_issue_shader                    0 # Specify which shader core to collect the warp issue distribution from
-gpgpu_local_mem_map                    1 # Mapping from local memory space address to simulated GPU physical address space (default = enabled)
-gpgpu_num_reg_banks                   32 # Number of register banks (default = 8)
-gpgpu_reg_bank_use_warp_id                    0 # Use warp ID in mapping registers to banks (default = off)
-gpgpu_operand_collector_num_units_sp                   20 # number of collector units (default = 4)
-gpgpu_operand_collector_num_units_sfu                    4 # number of collector units (default = 4)
-gpgpu_operand_collector_num_units_mem                    8 # number of collector units (default = 2)
-gpgpu_operand_collector_num_units_gen                    0 # number of collector units (default = 0)
-gpgpu_operand_collector_num_in_ports_sp                    4 # number of collector unit in ports (default = 1)
-gpgpu_operand_collector_num_in_ports_sfu                    1 # number of collector unit in ports (default = 1)
-gpgpu_operand_collector_num_in_ports_mem                    1 # number of collector unit in ports (default = 1)
-gpgpu_operand_collector_num_in_ports_gen                    0 # number of collector unit in ports (default = 0)
-gpgpu_operand_collector_num_out_ports_sp                    4 # number of collector unit in ports (default = 1)
-gpgpu_operand_collector_num_out_ports_sfu                    1 # number of collector unit in ports (default = 1)
-gpgpu_operand_collector_num_out_ports_mem                    1 # number of collector unit in ports (default = 1)
-gpgpu_operand_collector_num_out_ports_gen                    0 # number of collector unit in ports (default = 0)
-gpgpu_coalesce_arch                   13 # Coalescing arch (default = 13, anything else is off for now)
-gpgpu_num_sched_per_core                    2 # Number of warp schedulers per core
-gpgpu_max_insn_issue_per_warp                    2 # Max number of instructions that can be issued per warp in one cycle by scheduler
-gpgpu_simt_core_sim_order                    1 # Select the simulation order of cores in a cluster (0=Fix, 1=Round-Robin)
-gpgpu_pipeline_widths        4,1,1,4,1,1,6 # Pipeline widths ID_OC_SP,ID_OC_SFU,ID_OC_MEM,OC_EX_SP,OC_EX_SFU,OC_EX_MEM,EX_WB
-gpgpu_num_sp_units                     4 # Number of SP units (default=1)
-gpgpu_num_sfu_units                    1 # Number of SF units (default=1)
-gpgpu_num_mem_units                    1 # Number if ldst units (default=1) WARNING: not hooked up to anything
-gpgpu_scheduler                      gto # Scheduler configuration: < lrr | gto | two_level_active > If two_level_active:<num_active_warps>:<inner_prioritization>:<outer_prioritization>For complete list of prioritization values see shader.h enum scheduler_prioritization_typeDefault: gto
-gpgpu_concurrent_kernel_sm                    0 # Support concurrent kernels on a SM (default = disabled)
-tlb_size                            4096 # Number of tlb entries per SM.
-gpgpu_dram_scheduler                    1 # 0 = fifo, 1 = FR-FCFS (defaul)
-gpgpu_dram_partition_queues              8:8:8:8 # i2$:$2d:d2$:$2i
-l2_ideal                               0 # Use a ideal L2 cache that always hit
-gpgpu_cache:dl2     64:128:16,L:B:m:W:L,A:1024:1024,4:0,32 # unified banked L2 data cache config  {<nsets>:<bsize>:<assoc>,<rep>:<wr>:<alloc>:<wr_alloc>,<mshr>:<N>:<merge>,<mq>}
-gpgpu_cache:dl2_texture_only                    0 # L2 cache used for texture only
-gpgpu_n_mem                           11 # number of memory modules (e.g. memory controllers) in gpu
-gpgpu_n_sub_partition_per_mchannel                    2 # number of memory subpartition in each memory module
-gpgpu_n_mem_per_ctrlr                    1 # number of memory chips per memory controller
-gpgpu_memlatency_stat                   14 # track and display latency statistics 0x2 enables MC, 0x4 enables queue logs
-gpgpu_frfcfs_dram_sched_queue_size                   64 # 0 = unlimited (default); # entries per chip
-gpgpu_dram_return_queue_size                  116 # 0 = unlimited (default); # entries per chip
-gpgpu_dram_buswidth                    4 # default = 4 bytes (8 bytes per cycle at DDR)
-gpgpu_dram_burst_length                    8 # Burst length of each DRAM request (default = 4 data bus cycle)
-dram_data_command_freq_ratio                    4 # Frequency ratio between DRAM data bus and command bus (default = 2 times, i.e. DDR)
-gpgpu_dram_timing_opt nbk=16:CCD=2:RRD=6:RCD=12:RAS=28:RP=12:RC=40: CL=12:WL=4:CDLR=5:WR=12:nbkgrp=1:CCDL=0:RTPL=0 # DRAM timing parameters = {nbk:tCCD:tRRD:tRCD:tRAS:tRP:tRC:CL:WL:tCDLR:tWR:nbkgrp:tCCDL:tRTPL}
-rop_latency                          120 # ROP queue latency (default 85)
-dram_latency                         100 # DRAM latency (default 30)
-gpgpu_mem_addr_mapping dramid@8;00000000.00000000.00000000.00000000.0000RRRR.RRRRRRRR.RBBBCCCC.BCCSSSSS # mapping memory address to dram model {dramid@<start bit>;<memory address map>}
-gpgpu_mem_addr_test                    0 # run sweep test to check address mapping for aliased address
-gpgpu_mem_address_mask                    1 # 0 = old addressing mask, 1 = new addressing mask, 2 = new add. mask + flipped bank sel and chip sel bits
-gpuwattch_xml_file  gpuwattch_geforcegtx1080ti.xml # GPUWattch XML file
-power_simulation_enabled                    1 # Turn on power simulator (1=On, 0=Off)
-power_per_cycle_dump                    0 # Dump detailed power output each cycle
-power_trace_enabled                    0 # produce a file for the power trace (1=On, 0=Off)
-power_trace_zlevel                     6 # Compression level of the power trace output log (0=no comp, 9=highest)
-steady_power_levels_enabled                    0 # produce a file for the steady power levels (1=On, 0=Off)
-steady_state_definition                  8:4 # allowed deviation:number of samples
-gpgpu_max_cycle                        0 # terminates gpu simulation early (0 = no limit)
-gpgpu_max_insn                         0 # terminates gpu simulation early (0 = no limit)
-gpgpu_max_cta                          0 # terminates gpu simulation early (0 = no limit)
-gpgpu_runtime_stat                   500 # display runtime statistics such as dram utilization {<freq>:<flag>}
-liveness_message_freq                    1 # Minimum number of seconds between simulation liveness messages (0 = always print)
-gpgpu_flush_l1_cache                    0 # Flush L1 cache at the end of each kernel call
-gpgpu_flush_l2_cache                    0 # Flush L2 cache at the end of each kernel call
-gpgpu_deadlock_detect                    0 # Stop the simulation at deadlock (1=on (default), 0=off)
-gpgpu_ptx_instruction_classification                    0 # if enabled will classify ptx instruction types per kernel (Max 255 kernels now)
-gpgpu_ptx_sim_mode                     0 # Select between Performance (default) or Functional simulation (1)
-gpgpu_clock_domains 1481.0:2962.0:1481.0:2750.0 # Clock Domain Frequencies in MhZ {<Core Clock>:<ICNT Clock>:<L2 Clock>:<DRAM Clock>}
-gpgpu_max_concurrent_kernel                    8 # maximum kernels that can run concurrently on GPU
-gpgpu_cflog_interval                    0 # Interval between each snapshot in control flow logger
-visualizer_enabled                     0 # Turn on visualizer output (1=On, 0=Off)
-visualizer_outputfile                 NULL # Specifies the output log file for visualizer
-visualizer_zlevel                      6 # Compression level of the visualizer output log (0=no comp, 9=highest)
-trace_enabled                          0 # Turn on traces
-trace_components                    none # comma seperated list of traces to enable. Complete list found in trace_streams.tup. Default none
-trace_sampling_core                    0 # The core which is printed using CORE_DPRINTF. Default 0
-trace_sampling_memory_partition                   -1 # The memory partition which is printed using MEMPART_DPRINTF. Default -1 (i.e. all)
-gddr_size                      10.9091MB # Size of GDDR in MB/GB.(GLOBAL_HEAP_START, GLOBAL_HEAP_START + gddr_size) would be used for unmanged memory, (GLOBAL_HEAP_START + gddr_size, GLOBAL_HEAP_START + gddr_size*2) would be used for managed memory. 
-page_table_walk_latency                  100 # Average page table walk latency (in core cycle).
-eviction_policy                        3 # Select page eviction policy
-invalidate_clean                       0 # Should directly invalidate clean pages
-reserve_accessed_page_percent                    0 # Percentage of accessed pages reserved from eviction in hope that they will be accessed in next iteration.
-percentage_of_free_page_buffer                    0 # Percentage of free page buffer to trigger the page eviction.
-page_size                            4KB # GDDR page size, only 4KB/2MB avaliable.
-pcie_bandwidth                  16.0GB/s # PCI-e bandwidth per direction, in GB/s.
-enable_dma                             0 # Enable direct access to CPU memory
-multiply_dma_penalty                    2 # Oversubscription Multiplicative Penalty Factor for Adaptive DMA
-migrate_threshold                      8 # Access counter threshold for migrating the page from cpu to gpu
-sim_prof_enable                        1 # Enable gpgpu-sim profiler
-hardware_prefetch                      1 # Select gpgpu-sim hardware prefetcher
-hwprefetch_oversub                     0 # Select gpgpu-sim hardware prefetcher under over-subscription
-page_fault_latency                 66645 # Average fault latency (in core cycle).
-enable_accurate_simulation                    0 # Enable page fault functional simulation.
-enable_ptx_file_line_stats                    1 # Turn on PTX source line statistic profiling. (1 = On)
-ptx_line_stats_filename gpgpu_inst_stats.txt # Output file for PTX source line statistics.
-gpgpu_kernel_launch_latency               222150 # Kernel launch latency in cycles. Default: 0
-gpgpu_cdp_enabled                      0 # Turn on CDP
-save_embedded_ptx                      0 # saves ptx files embedded in binary as <n>.ptx
-keep                                   0 # keep intermediate files created by GPGPU-Sim when interfacing with external programs
-gpgpu_ptx_save_converted_ptxplus                    0 # Saved converted ptxplus to a file
-ptx_opcode_latency_int         4,13,4,5,145 # Opcode latencies for integers <ADD,MAX,MUL,MAD,DIV>Default 1,1,19,25,145
-ptx_opcode_latency_fp          4,13,4,5,39 # Opcode latencies for single precision floating points <ADD,MAX,MUL,MAD,DIV>Default 1,1,1,1,30
-ptx_opcode_latency_dp         8,19,8,8,330 # Opcode latencies for double precision floating points <ADD,MAX,MUL,MAD,DIV>Default 8,8,8,8,335
-ptx_opcode_initiation_int            1,2,2,2,8 # Opcode initiation intervals for integers <ADD,MAX,MUL,MAD,DIV>Default 1,1,4,4,32
-ptx_opcode_initiation_fp            1,2,1,1,4 # Opcode initiation intervals for single precision floating points <ADD,MAX,MUL,MAD,DIV>Default 1,1,1,1,5
-ptx_opcode_initiation_dp          1,2,1,1,130 # Opcode initiation intervals for double precision floating points <ADD,MAX,MUL,MAD,DIV>Default 8,8,8,8,130
-cdp_latency         7200,8000,100,12000,1600 # CDP API latency <cudaStreamCreateWithFlags, cudaGetParameterBufferV2_init_perWarp, cudaGetParameterBufferV2_perKernel, cudaLaunchDeviceV2_init_perWarp, cudaLaunchDevicV2_perKernel>Default 7200,8000,100,12000,1600
DRAM Timing Options:
nbk                                    16 # number of banks
CCD                                     2 # column to column delay
RRD                                     6 # minimal delay between activation of rows in different banks
RCD                                    12 # row to column delay
RAS                                    28 # time needed to activate row
RP                                     12 # time needed to precharge (deactivate) row
RC                                     40 # row cycle time
CDLR                                    5 # switching from write to read (changes tWTR)
WR                                     12 # last data-in to row precharge
CL                                     12 # CAS latency
WL                                      4 # Write latency
nbkgrp                                  1 # number of bank groups
CCDL                                    0 # column to column delay between accesses to different bank groups
RTPL                                    0 # read to precharge delay between accesses to different bank groups
Total number of memory sub partition = 22
addr_dec_mask[CHIP]  = 0000000000000000 	high:64 low:0
addr_dec_mask[BK]    = 0000000000007080 	high:15 low:7
addr_dec_mask[ROW]   = 000000000fff8000 	high:28 low:15
addr_dec_mask[COL]   = 0000000000000f7f 	high:12 low:0
addr_dec_mask[BURST] = 000000000000001f 	high:5 low:0
sub_partition_id_mask = 0000000000000080
GPGPU-Sim uArch: clock freqs: 1481000000.000000:2962000000.000000:1481000000.000000:2750000000.000000
GPGPU-Sim uArch: clock periods: 0.00000000067521944632:0.00000000033760972316:0.00000000067521944632:0.00000000036363636364
*** Initializing Memory Statistics ***
GPGPU-Sim uArch: interconnect node map (shaderID+MemID to icntID)
GPGPU-Sim uArch: Memory nodes ID start from index: 28
GPGPU-Sim uArch:    0   1   2   3   4   5   6
GPGPU-Sim uArch:    7   8   9  10  11  12  13
GPGPU-Sim uArch:   14  15  16  17  18  19  20
GPGPU-Sim uArch:   21  22  23  24  25  26  27
GPGPU-Sim uArch:   28  29  30  31  32  33  34
GPGPU-Sim uArch:   35  36  37  38  39  40  41
GPGPU-Sim uArch:   42  43  44  45  46  47  48
GPGPU-Sim uArch:   49
GPGPU-Sim uArch: interconnect node reverse map (icntID to shaderID+MemID)
GPGPU-Sim uArch: Memory nodes start from ID: 28
GPGPU-Sim uArch:    0   1   2   3   4   5   6
GPGPU-Sim uArch:    7   8   9  10  11  12  13
GPGPU-Sim uArch:   14  15  16  17  18  19  20
GPGPU-Sim uArch:   21  22  23  24  25  26  27
GPGPU-Sim uArch:   28  29  30  31  32  33  34
GPGPU-Sim uArch:   35  36  37  38  39  40  41
GPGPU-Sim uArch:   42  43  44  45  46  47  48
GPGPU-Sim uArch:   49
63727a3981f32f4888a301221436a968  /root/gpgpu-sim_UVMSmart/benchmarks/Managed/hotspot/hotspot
GPGPU-Sim uArch: performance model initialization complete.
GPGPU-Sim PTX: __cudaRegisterFatBinary, fat_cubin_handle = 1, filename=default
self exe links to: /root/gpgpu-sim_UVMSmart/benchmarks/Managed/hotspot/hotspot
Running md5sum using "md5sum /root/gpgpu-sim_UVMSmart/benchmarks/Managed/hotspot/hotspot "
Parsing file _cuobjdump_complete_output_eZhqXr
######### cuobjdump parser ########
## Adding new section ELF
Adding arch: sm_20
Adding identifier: default
## Adding new section ELF
Adding arch: sm_20
Adding identifier: default
## Adding new section PTX
Adding ptx filename: _cuobjdump_1.ptx
Adding arch: sm_20
Adding identifier: default
Done parsing!!!
GPGPU-Sim PTX: __cudaRegisterFunction _Z14calculate_tempiPfS_S_iiiiffffff : hostFun 0x0x401ae2, fat_cubin_handle = 1
GPGPU-Sim PTX: allocating shared region for "_Z14calculate_tempiPfS_S_iiiiffffff$__cuda_local_var_16165_39_non_const_temp_on_cuda" from 0x0 to 0x400 (shared memory space)
GPGPU-Sim PTX: allocating shared region for "_Z14calculate_tempiPfS_S_iiiiffffff$__cuda_local_var_16166_39_non_const_power_on_cuda" from 0x400 to 0x800 (shared memory space)
GPGPU-Sim PTX: allocating shared region for "_Z14calculate_tempiPfS_S_iiiiffffff$__cuda_local_var_16167_39_non_const_temp_t" from 0x800 to 0xc00 (shared memory space)
GPGPU-Sim PTX: instruction assembly for function '_Z14calculate_tempiPfS_S_iiiiffffff'...   done.
GPGPU-Sim PTX: finding reconvergence points for '_Z14calculate_tempiPfS_S_iiiiffffff'...
GPGPU-Sim PTX: Finding dominators for '_Z14calculate_tempiPfS_S_iiiiffffff'...
GPGPU-Sim PTX: Finding immediate dominators for '_Z14calculate_tempiPfS_S_iiiiffffff'...
GPGPU-Sim PTX: Finding postdominators for '_Z14calculate_tempiPfS_S_iiiiffffff'...
GPGPU-Sim PTX: Finding immediate postdominators for '_Z14calculate_tempiPfS_S_iiiiffffff'...
GPGPU-Sim PTX: pre-decoding instructions for '_Z14calculate_tempiPfS_S_iiiiffffff'...
GPGPU-Sim PTX: reconvergence points for _Z14calculate_tempiPfS_S_iiiiffffff...
GPGPU-Sim PTX:  1 (potential) branch divergence @  PC=0x118 (_1.ptx:82) @!%p7 bra BB0_2;
GPGPU-Sim PTX:    immediate post dominator      @  PC=0x1b8 (_1.ptx:106) bar.sync 0;
GPGPU-Sim PTX:  2 (potential) branch divergence @  PC=0x120 (_1.ptx:83) bra.uni BB0_1;
GPGPU-Sim PTX:    immediate post dominator      @  PC=0x128 (_1.ptx:86) mad.lo.s32 %r27, %r1, %r10, %r2;
GPGPU-Sim PTX:  3 (potential) branch divergence @  PC=0x1c8 (_1.ptx:108) @%p8 bra BB0_11;
GPGPU-Sim PTX:    immediate post dominator      @  PC=0x5b0 (_1.ptx:247) and.b16 %rs7, %rs8, 255;
GPGPU-Sim PTX:  4 (potential) branch divergence @  PC=0x338 (_1.ptx:157) @!%p15 bra BB0_7;
GPGPU-Sim PTX:    immediate post dominator      @  PC=0x538 (_1.ptx:226) bar.sync 0;
GPGPU-Sim PTX:  5 (potential) branch divergence @  PC=0x340 (_1.ptx:158) bra.uni BB0_5;
GPGPU-Sim PTX:    immediate post dominator      @  PC=0x348 (_1.ptx:161) setp.gt.s32%p16, %r23, %r6;
GPGPU-Sim PTX:  6 (potential) branch divergence @  PC=0x3d0 (_1.ptx:178) @%p28 bra BB0_7;
GPGPU-Sim PTX:    immediate post dominator      @  PC=0x538 (_1.ptx:226) bar.sync 0;
GPGPU-Sim PTX:  7 (potential) branch divergence @  PC=0x548 (_1.ptx:228) @%p31 bra BB0_11;
GPGPU-Sim PTX:    immediate post dominator      @  PC=0x5b0 (_1.ptx:247) and.b16 %rs7, %rs8, 255;
GPGPU-Sim PTX:  8 (potential) branch divergence @  PC=0x558 (_1.ptx:231) @%p32 bra BB0_10;
GPGPU-Sim PTX:    immediate post dominator      @  PC=0x590 (_1.ptx:241) bar.sync 0;
GPGPU-Sim PTX:  9 (potential) branch divergence @  PC=0x5a8 (_1.ptx:244) @%p33 bra BB0_4;
GPGPU-Sim PTX:    immediate post dominator      @  PC=0x5b0 (_1.ptx:247) and.b16 %rs7, %rs8, 255;
GPGPU-Sim PTX: 10 (potential) branch divergence @  PC=0x5c0 (_1.ptx:249) @%p34 bra BB0_13;
GPGPU-Sim PTX:    immediate post dominator      @  PC=0x620 (_1.ptx:264) ret;
GPGPU-Sim PTX: ... end of reconvergence points for _Z14calculate_tempiPfS_S_iiiiffffff
GPGPU-Sim PTX: ... done pre-decoding instructions for '_Z14calculate_tempiPfS_S_iiiiffffff'.
GPGPU-Sim PTX: finished parsing EMBEDDED .ptx file _1.ptx
Adding _cuobjdump_1.ptx with cubin handle 1
GPGPU-Sim PTX: extracting embedded .ptx to temporary file "_ptx_u5U6TK"
Running: cat _ptx_u5U6TK | sed 's/.version 1.5/.version 1.4/' | sed 's/, texmode_independent//' | sed 's/\(\.extern \.const\[1\] .b8 \w\+\)\[\]/\1\[1\]/' | sed 's/const\[.\]/const\[0\]/g' > _ptx2_yFzOQ3
GPGPU-Sim PTX: generating ptxinfo using "$CUDA_INSTALL_PATH/bin/ptxas --gpu-name=sm_20 -v _ptx2_yFzOQ3 --output-file  /dev/null 2> _ptx_u5U6TKinfo"
GPGPU-Sim PTX: Kernel '_Z14calculate_tempiPfS_S_iiiiffffff' : regs=34, lmem=0, smem=3072, cmem=120
GPGPU-Sim PTX: removing ptxinfo using "rm -f _ptx_u5U6TK _ptx2_yFzOQ3 _ptx_u5U6TKinfo"
GPGPU-Sim PTX: loading globals with explicit initializers... 
GPGPU-Sim PTX: finished loading globals (0 bytes total).
GPGPU-Sim PTX: loading constants with explicit initializers...  done.
WG size of kernel = 16 X 16
pyramidHeight: 2
gridSize: [1024, 1024]
border:[2, 2]
blockGrid:[86, 86]
targetBlock:[12, 12]
Start computing the transient temperature

GPGPU-Sim PTX: cudaLaunch for 0x0x401ae2 (mode=performance simulation) on stream 0
GPGPU-Sim PTX: pushing kernel '_Z14calculate_tempiPfS_S_iiiiffffff' to stream 0, gridDim= (86,86,1) blockDim = (16,16,1) 
GPGPU-Sim uArch: Shader 1 bind to kernel 1 '_Z14calculate_tempiPfS_S_iiiiffffff'
GPGPU-Sim uArch: CTA/core = 7, limited by: regs
GPGPU-Sim uArch: Shader 2 bind to kernel 1 '_Z14calculate_tempiPfS_S_iiiiffffff'
GPGPU-Sim uArch: Shader 3 bind to kernel 1 '_Z14calculate_tempiPfS_S_iiiiffffff'
GPGPU-Sim uArch: Shader 4 bind to kernel 1 '_Z14calculate_tempiPfS_S_iiiiffffff'
GPGPU-Sim uArch: Shader 5 bind to kernel 1 '_Z14calculate_tempiPfS_S_iiiiffffff'
GPGPU-Sim uArch: Shader 6 bind to kernel 1 '_Z14calculate_tempiPfS_S_iiiiffffff'
GPGPU-Sim uArch: Shader 7 bind to kernel 1 '_Z14calculate_tempiPfS_S_iiiiffffff'
GPGPU-Sim uArch: Shader 8 bind to kernel 1 '_Z14calculate_tempiPfS_S_iiiiffffff'
GPGPU-Sim uArch: Shader 9 bind to kernel 1 '_Z14calculate_tempiPfS_S_iiiiffffff'
GPGPU-Sim uArch: Shader 10 bind to kernel 1 '_Z14calculate_tempiPfS_S_iiiiffffff'
GPGPU-Sim uArch: Shader 11 bind to kernel 1 '_Z14calculate_tempiPfS_S_iiiiffffff'
GPGPU-Sim uArch: Shader 12 bind to kernel 1 '_Z14calculate_tempiPfS_S_iiiiffffff'
GPGPU-Sim uArch: Shader 13 bind to kernel 1 '_Z14calculate_tempiPfS_S_iiiiffffff'
GPGPU-Sim uArch: Shader 14 bind to kernel 1 '_Z14calculate_tempiPfS_S_iiiiffffff'
GPGPU-Sim uArch: Shader 15 bind to kernel 1 '_Z14calculate_tempiPfS_S_iiiiffffff'
GPGPU-Sim uArch: Shader 16 bind to kernel 1 '_Z14calculate_tempiPfS_S_iiiiffffff'
GPGPU-Sim uArch: Shader 17 bind to kernel 1 '_Z14calculate_tempiPfS_S_iiiiffffff'
GPGPU-Sim uArch: Shader 18 bind to kernel 1 '_Z14calculate_tempiPfS_S_iiiiffffff'
GPGPU-Sim uArch: Shader 19 bind to kernel 1 '_Z14calculate_tempiPfS_S_iiiiffffff'
GPGPU-Sim uArch: Shader 20 bind to kernel 1 '_Z14calculate_tempiPfS_S_iiiiffffff'
GPGPU-Sim uArch: Shader 21 bind to kernel 1 '_Z14calculate_tempiPfS_S_iiiiffffff'
GPGPU-Sim uArch: Shader 22 bind to kernel 1 '_Z14calculate_tempiPfS_S_iiiiffffff'
GPGPU-Sim uArch: Shader 23 bind to kernel 1 '_Z14calculate_tempiPfS_S_iiiiffffff'
GPGPU-Sim uArch: Shader 24 bind to kernel 1 '_Z14calculate_tempiPfS_S_iiiiffffff'
GPGPU-Sim uArch: Shader 25 bind to kernel 1 '_Z14calculate_tempiPfS_S_iiiiffffff'
GPGPU-Sim uArch: Shader 26 bind to kernel 1 '_Z14calculate_tempiPfS_S_iiiiffffff'
GPGPU-Sim uArch: Shader 27 bind to kernel 1 '_Z14calculate_tempiPfS_S_iiiiffffff'
GPGPU-Sim uArch: Shader 0 bind to kernel 1 '_Z14calculate_tempiPfS_S_iiiiffffff'
GPGPU-Sim uArch: Shader 1 bind to kernel 1 '_Z14calculate_tempiPfS_S_iiiiffffff'
GPGPU-Sim uArch: Shader 2 bind to kernel 1 '_Z14calculate_tempiPfS_S_iiiiffffff'
GPGPU-Sim uArch: Shader 3 bind to kernel 1 '_Z14calculate_tempiPfS_S_iiiiffffff'
GPGPU-Sim uArch: Shader 4 bind to kernel 1 '_Z14calculate_tempiPfS_S_iiiiffffff'
GPGPU-Sim uArch: Shader 7 bind to kernel 1 '_Z14calculate_tempiPfS_S_iiiiffffff'
GPGPU-Sim uArch: Shader 13 bind to kernel 1 '_Z14calculate_tempiPfS_S_iiiiffffff'
GPGPU-Sim uArch: Shader 15 bind to kernel 1 '_Z14calculate_tempiPfS_S_iiiiffffff'
GPGPU-Sim uArch: Shader 17 bind to kernel 1 '_Z14calculate_tempiPfS_S_iiiiffffff'
GPGPU-Sim uArch: Shader 18 bind to kernel 1 '_Z14calculate_tempiPfS_S_iiiiffffff'
GPGPU-Sim uArch: Shader 21 bind to kernel 1 '_Z14calculate_tempiPfS_S_iiiiffffff'
GPGPU-Sim uArch: Shader 24 bind to kernel 1 '_Z14calculate_tempiPfS_S_iiiiffffff'
GPGPU-Sim uArch: Shader 25 bind to kernel 1 '_Z14calculate_tempiPfS_S_iiiiffffff'
GPGPU-Sim uArch: Shader 27 bind to kernel 1 '_Z14calculate_tempiPfS_S_iiiiffffff'
GPGPU-Sim uArch: Shader 0 bind to kernel 1 '_Z14calculate_tempiPfS_S_iiiiffffff'
GPGPU-Sim uArch: Shader 14 bind to kernel 1 '_Z14calculate_tempiPfS_S_iiiiffffff'
GPGPU-Sim uArch: Shader 15 bind to kernel 1 '_Z14calculate_tempiPfS_S_iiiiffffff'
GPGPU-Sim uArch: Shader 18 bind to kernel 1 '_Z14calculate_tempiPfS_S_iiiiffffff'
GPGPU-Sim uArch: Shader 22 bind to kernel 1 '_Z14calculate_tempiPfS_S_iiiiffffff'
GPGPU-Sim uArch: Shader 23 bind to kernel 1 '_Z14calculate_tempiPfS_S_iiiiffffff'
GPGPU-Sim uArch: Shader 27 bind to kernel 1 '_Z14calculate_tempiPfS_S_iiiiffffff'
GPGPU-Sim uArch: Shader 4 bind to kernel 1 '_Z14calculate_tempiPfS_S_iiiiffffff'
GPGPU-Sim uArch: Shader 8 bind to kernel 1 '_Z14calculate_tempiPfS_S_iiiiffffff'
GPGPU-Sim uArch: Shader 11 bind to kernel 1 '_Z14calculate_tempiPfS_S_iiiiffffff'
GPGPU-Sim uArch: Shader 12 bind to kernel 1 '_Z14calculate_tempiPfS_S_iiiiffffff'
GPGPU-Sim uArch: Shader 13 bind to kernel 1 '_Z14calculate_tempiPfS_S_iiiiffffff'
GPGPU-Sim uArch: Shader 15 bind to kernel 1 '_Z14calculate_tempiPfS_S_iiiiffffff'
GPGPU-Sim uArch: Shader 20 bind to kernel 1 '_Z14calculate_tempiPfS_S_iiiiffffff'
GPGPU-Sim uArch: Shader 24 bind to kernel 1 '_Z14calculate_tempiPfS_S_iiiiffffff'
GPGPU-Sim uArch: Shader 4 bind to kernel 1 '_Z14calculate_tempiPfS_S_iiiiffffff'
GPGPU-Sim uArch: Shader 6 bind to kernel 1 '_Z14calculate_tempiPfS_S_iiiiffffff'
GPGPU-Sim uArch: Shader 12 bind to kernel 1 '_Z14calculate_tempiPfS_S_iiiiffffff'
GPGPU-Sim uArch: Shader 13 bind to kernel 1 '_Z14calculate_tempiPfS_S_iiiiffffff'
GPGPU-Sim uArch: Shader 22 bind to kernel 1 '_Z14calculate_tempiPfS_S_iiiiffffff'
GPGPU-Sim uArch: Shader 24 bind to kernel 1 '_Z14calculate_tempiPfS_S_iiiiffffff'
GPGPU-Sim uArch: Shader 9 bind to kernel 1 '_Z14calculate_tempiPfS_S_iiiiffffff'
GPGPU-Sim uArch: Shader 10 bind to kernel 1 '_Z14calculate_tempiPfS_S_iiiiffffff'
GPGPU-Sim uArch: Shader 11 bind to kernel 1 '_Z14calculate_tempiPfS_S_iiiiffffff'
GPGPU-Sim uArch: Shader 12 bind to kernel 1 '_Z14calculate_tempiPfS_S_iiiiffffff'
GPGPU-Sim uArch: Shader 13 bind to kernel 1 '_Z14calculate_tempiPfS_S_iiiiffffff'
GPGPU-Sim uArch: Shader 15 bind to kernel 1 '_Z14calculate_tempiPfS_S_iiiiffffff'
GPGPU-Sim uArch: Shader 16 bind to kernel 1 '_Z14calculate_tempiPfS_S_iiiiffffff'
GPGPU-Sim uArch: Shader 18 bind to kernel 1 '_Z14calculate_tempiPfS_S_iiiiffffff'
GPGPU-Sim uArch: Shader 19 bind to kernel 1 '_Z14calculate_tempiPfS_S_iiiiffffff'
GPGPU-Sim uArch: Shader 20 bind to kernel 1 '_Z14calculate_tempiPfS_S_iiiiffffff'
GPGPU-Sim uArch: Shader 22 bind to kernel 1 '_Z14calculate_tempiPfS_S_iiiiffffff'
GPGPU-Sim uArch: Shader 24 bind to kernel 1 '_Z14calculate_tempiPfS_S_iiiiffffff'
GPGPU-Sim uArch: Shader 26 bind to kernel 1 '_Z14calculate_tempiPfS_S_iiiiffffff'
GPGPU-Sim uArch: Shader 27 bind to kernel 1 '_Z14calculate_tempiPfS_S_iiiiffffff'
GPGPU-Sim uArch: Shader 0 bind to kernel 1 '_Z14calculate_tempiPfS_S_iiiiffffff'
GPGPU-Sim uArch: Shader 1 bind to kernel 1 '_Z14calculate_tempiPfS_S_iiiiffffff'
GPGPU-Sim uArch: Shader 4 bind to kernel 1 '_Z14calculate_tempiPfS_S_iiiiffffff'
GPGPU-Sim uArch: Shader 6 bind to kernel 1 '_Z14calculate_tempiPfS_S_iiiiffffff'
GPGPU-Sim uArch: Shader 7 bind to kernel 1 '_Z14calculate_tempiPfS_S_iiiiffffff'
GPGPU-Sim uArch: Shader 9 bind to kernel 1 '_Z14calculate_tempiPfS_S_iiiiffffff'
GPGPU-Sim uArch: Shader 14 bind to kernel 1 '_Z14calculate_tempiPfS_S_iiiiffffff'
GPGPU-Sim uArch: Shader 17 bind to kernel 1 '_Z14calculate_tempiPfS_S_iiiiffffff'
GPGPU-Sim uArch: Shader 21 bind to kernel 1 '_Z14calculate_tempiPfS_S_iiiiffffff'
GPGPU-Sim uArch: Shader 23 bind to kernel 1 '_Z14calculate_tempiPfS_S_iiiiffffff'
GPGPU-Sim uArch: Shader 25 bind to kernel 1 '_Z14calculate_tempiPfS_S_iiiiffffff'
GPGPU-Sim uArch: Shader 3 bind to kernel 1 '_Z14calculate_tempiPfS_S_iiiiffffff'
GPGPU-Sim uArch: Shader 5 bind to kernel 1 '_Z14calculate_tempiPfS_S_iiiiffffff'
GPGPU-Sim uArch: Shader 7 bind to kernel 1 '_Z14calculate_tempiPfS_S_iiiiffffff'
GPGPU-Sim uArch: Shader 22 bind to kernel 1 '_Z14calculate_tempiPfS_S_iiiiffffff'
GPGPU-Sim uArch: Shader 27 bind to kernel 1 '_Z14calculate_tempiPfS_S_iiiiffffff'
GPGPU-Sim uArch: Shader 2 bind to kernel 1 '_Z14calculate_tempiPfS_S_iiiiffffff'
GPGPU-Sim uArch: Shader 3 bind to kernel 1 '_Z14calculate_tempiPfS_S_iiiiffffff'
GPGPU-Sim uArch: Shader 4 bind to kernel 1 '_Z14calculate_tempiPfS_S_iiiiffffff'
GPGPU-Sim uArch: Shader 5 bind to kernel 1 '_Z14calculate_tempiPfS_S_iiiiffffff'
GPGPU-Sim uArch: Shader 8 bind to kernel 1 '_Z14calculate_tempiPfS_S_iiiiffffff'
GPGPU-Sim uArch: Shader 9 bind to kernel 1 '_Z14calculate_tempiPfS_S_iiiiffffff'
GPGPU-Sim uArch: Shader 11 bind to kernel 1 '_Z14calculate_tempiPfS_S_iiiiffffff'
GPGPU-Sim uArch: Shader 12 bind to kernel 1 '_Z14calculate_tempiPfS_S_iiiiffffff'
GPGPU-Sim uArch: Shader 14 bind to kernel 1 '_Z14calculate_tempiPfS_S_iiiiffffff'
GPGPU-Sim uArch: Shader 17 bind to kernel 1 '_Z14calculate_tempiPfS_S_iiiiffffff'
GPGPU-Sim uArch: Shader 20 bind to kernel 1 '_Z14calculate_tempiPfS_S_iiiiffffff'
GPGPU-Sim uArch: Shader 21 bind to kernel 1 '_Z14calculate_tempiPfS_S_iiiiffffff'
GPGPU-Sim uArch: Shader 23 bind to kernel 1 '_Z14calculate_tempiPfS_S_iiiiffffff'
GPGPU-Sim uArch: Shader 24 bind to kernel 1 '_Z14calculate_tempiPfS_S_iiiiffffff'
GPGPU-Sim uArch: Shader 26 bind to kernel 1 '_Z14calculate_tempiPfS_S_iiiiffffff'
GPGPU-Sim uArch: Shader 8 bind to kernel 1 '_Z14calculate_tempiPfS_S_iiiiffffff'
GPGPU-Sim uArch: Shader 12 bind to kernel 1 '_Z14calculate_tempiPfS_S_iiiiffffff'
GPGPU-Sim uArch: Shader 14 bind to kernel 1 '_Z14calculate_tempiPfS_S_iiiiffffff'
GPGPU-Sim uArch: Shader 15 bind to kernel 1 '_Z14calculate_tempiPfS_S_iiiiffffff'
GPGPU-Sim uArch: Shader 16 bind to kernel 1 '_Z14calculate_tempiPfS_S_iiiiffffff'
GPGPU-Sim uArch: Shader 17 bind to kernel 1 '_Z14calculate_tempiPfS_S_iiiiffffff'
GPGPU-Sim uArch: Shader 18 bind to kernel 1 '_Z14calculate_tempiPfS_S_iiiiffffff'
GPGPU-Sim uArch: Shader 19 bind to kernel 1 '_Z14calculate_tempiPfS_S_iiiiffffff'
GPGPU-Sim uArch: Shader 22 bind to kernel 1 '_Z14calculate_tempiPfS_S_iiiiffffff'
GPGPU-Sim uArch: Shader 25 bind to kernel 1 '_Z14calculate_tempiPfS_S_iiiiffffff'
GPGPU-Sim uArch: Shader 27 bind to kernel 1 '_Z14calculate_tempiPfS_S_iiiiffffff'
GPGPU-Sim uArch: Shader 0 bind to kernel 1 '_Z14calculate_tempiPfS_S_iiiiffffff'
GPGPU-Sim uArch: Shader 1 bind to kernel 1 '_Z14calculate_tempiPfS_S_iiiiffffff'
GPGPU-Sim uArch: Shader 2 bind to kernel 1 '_Z14calculate_tempiPfS_S_iiiiffffff'
GPGPU-Sim uArch: Shader 3 bind to kernel 1 '_Z14calculate_tempiPfS_S_iiiiffffff'
GPGPU-Sim uArch: Shader 4 bind to kernel 1 '_Z14calculate_tempiPfS_S_iiiiffffff'
GPGPU-Sim uArch: Shader 5 bind to kernel 1 '_Z14calculate_tempiPfS_S_iiiiffffff'
GPGPU-Sim uArch: Shader 6 bind to kernel 1 '_Z14calculate_tempiPfS_S_iiiiffffff'
GPGPU-Sim uArch: Shader 7 bind to kernel 1 '_Z14calculate_tempiPfS_S_iiiiffffff'
GPGPU-Sim uArch: Shader 9 bind to kernel 1 '_Z14calculate_tempiPfS_S_iiiiffffff'
GPGPU-Sim uArch: Shader 10 bind to kernel 1 '_Z14calculate_tempiPfS_S_iiiiffffff'
GPGPU-Sim uArch: Shader 11 bind to kernel 1 '_Z14calculate_tempiPfS_S_iiiiffffff'
GPGPU-Sim uArch: Shader 13 bind to kernel 1 '_Z14calculate_tempiPfS_S_iiiiffffff'
GPGPU-Sim uArch: Shader 15 bind to kernel 1 '_Z14calculate_tempiPfS_S_iiiiffffff'
GPGPU-Sim uArch: Shader 16 bind to kernel 1 '_Z14calculate_tempiPfS_S_iiiiffffff'
GPGPU-Sim uArch: Shader 17 bind to kernel 1 '_Z14calculate_tempiPfS_S_iiiiffffff'
GPGPU-Sim uArch: Shader 18 bind to kernel 1 '_Z14calculate_tempiPfS_S_iiiiffffff'
GPGPU-Sim uArch: Shader 19 bind to kernel 1 '_Z14calculate_tempiPfS_S_iiiiffffff'
GPGPU-Sim uArch: Shader 20 bind to kernel 1 '_Z14calculate_tempiPfS_S_iiiiffffff'
GPGPU-Sim uArch: Shader 23 bind to kernel 1 '_Z14calculate_tempiPfS_S_iiiiffffff'
GPGPU-Sim uArch: Shader 24 bind to kernel 1 '_Z14calculate_tempiPfS_S_iiiiffffff'
GPGPU-Sim uArch: Shader 25 bind to kernel 1 '_Z14calculate_tempiPfS_S_iiiiffffff'
GPGPU-Sim uArch: Shader 26 bind to kernel 1 '_Z14calculate_tempiPfS_S_iiiiffffff'
GPGPU-Sim uArch: Shader 27 bind to kernel 1 '_Z14calculate_tempiPfS_S_iiiiffffff'
GPGPU-Sim uArch: Shader 0 bind to kernel 1 '_Z14calculate_tempiPfS_S_iiiiffffff'
GPGPU-Sim uArch: Shader 1 bind to kernel 1 '_Z14calculate_tempiPfS_S_iiiiffffff'
GPGPU-Sim uArch: Shader 2 bind to kernel 1 '_Z14calculate_tempiPfS_S_iiiiffffff'
GPGPU-Sim uArch: Shader 3 bind to kernel 1 '_Z14calculate_tempiPfS_S_iiiiffffff'
GPGPU-Sim uArch: Shader 4 bind to kernel 1 '_Z14calculate_tempiPfS_S_iiiiffffff'
GPGPU-Sim uArch: Shader 6 bind to kernel 1 '_Z14calculate_tempiPfS_S_iiiiffffff'
GPGPU-Sim uArch: Shader 8 bind to kernel 1 '_Z14calculate_tempiPfS_S_iiiiffffff'
GPGPU-Sim uArch: Shader 11 bind to kernel 1 '_Z14calculate_tempiPfS_S_iiiiffffff'
GPGPU-Sim uArch: Shader 6 bind to kernel 1 '_Z14calculate_tempiPfS_S_iiiiffffff'
GPGPU-Sim uArch: Shader 7 bind to kernel 1 '_Z14calculate_tempiPfS_S_iiiiffffff'
GPGPU-Sim uArch: Shader 8 bind to kernel 1 '_Z14calculate_tempiPfS_S_iiiiffffff'
GPGPU-Sim uArch: Shader 9 bind to kernel 1 '_Z14calculate_tempiPfS_S_iiiiffffff'
GPGPU-Sim uArch: Shader 10 bind to kernel 1 '_Z14calculate_tempiPfS_S_iiiiffffff'
GPGPU-Sim uArch: Shader 11 bind to kernel 1 '_Z14calculate_tempiPfS_S_iiiiffffff'
GPGPU-Sim uArch: Shader 12 bind to kernel 1 '_Z14calculate_tempiPfS_S_iiiiffffff'
GPGPU-Sim uArch: Shader 13 bind to kernel 1 '_Z14calculate_tempiPfS_S_iiiiffffff'
Destroy streams for kernel 1: size 0
kernel_name = _Z14calculate_tempiPfS_S_iiiiffffff 
kernel_launch_uid = 1 
gpu_sim_cycle = 2431188
gpu_sim_insn = 415466464
gpu_ipc =     170.8903
gpu_tot_sim_cycle = 2653338
gpu_tot_sim_insn = 415466464
gpu_tot_ipc =     156.5826
gpu_tot_issued_cta = 7396
max_total_param_size = 0
gpu_stall_dramfull = 77562
gpu_stall_icnt2sh    = 643175
partiton_reqs_in_parallel = 53408574
partiton_reqs_in_parallel_total    = 0
partiton_level_parallism =      21.9681
partiton_level_parallism_total  =      20.1288
partiton_reqs_in_parallel_util = 53408574
partiton_reqs_in_parallel_util_total    = 0
gpu_sim_cycle_parition_util = 2430564
gpu_tot_sim_cycle_parition_util    = 0
partiton_level_parallism_util =      21.9737
partiton_level_parallism_util_total  =      21.9737
partiton_replys_in_parallel = 456444
partiton_replys_in_parallel_total    = 0
L2_BW  =      17.7952 GB/Sec
L2_BW_total  =      16.3053 GB/Sec
gpu_total_sim_rate=157732

========= Core cache stats =========
L1I_cache:
	L1I_total_cache_accesses = 7740000
	L1I_total_cache_misses = 8688
	L1I_total_cache_miss_rate = 0.0011
	L1I_total_cache_pending_hits = 0
	L1I_total_cache_reservation_fails = 6846
L1D_cache:
	L1D_cache_core[0]: Access = 0, Miss = 0, Miss_rate = -nan, Pending_hits = 0, Reservation_fails = 0
	L1D_cache_core[1]: Access = 0, Miss = 0, Miss_rate = -nan, Pending_hits = 0, Reservation_fails = 0
	L1D_cache_core[2]: Access = 0, Miss = 0, Miss_rate = -nan, Pending_hits = 0, Reservation_fails = 0
	L1D_cache_core[3]: Access = 0, Miss = 0, Miss_rate = -nan, Pending_hits = 0, Reservation_fails = 0
	L1D_cache_core[4]: Access = 0, Miss = 0, Miss_rate = -nan, Pending_hits = 0, Reservation_fails = 0
	L1D_cache_core[5]: Access = 0, Miss = 0, Miss_rate = -nan, Pending_hits = 0, Reservation_fails = 0
	L1D_cache_core[6]: Access = 0, Miss = 0, Miss_rate = -nan, Pending_hits = 0, Reservation_fails = 0
	L1D_cache_core[7]: Access = 0, Miss = 0, Miss_rate = -nan, Pending_hits = 0, Reservation_fails = 0
	L1D_cache_core[8]: Access = 0, Miss = 0, Miss_rate = -nan, Pending_hits = 0, Reservation_fails = 0
	L1D_cache_core[9]: Access = 0, Miss = 0, Miss_rate = -nan, Pending_hits = 0, Reservation_fails = 0
	L1D_cache_core[10]: Access = 0, Miss = 0, Miss_rate = -nan, Pending_hits = 0, Reservation_fails = 0
	L1D_cache_core[11]: Access = 0, Miss = 0, Miss_rate = -nan, Pending_hits = 0, Reservation_fails = 0
	L1D_cache_core[12]: Access = 0, Miss = 0, Miss_rate = -nan, Pending_hits = 0, Reservation_fails = 0
	L1D_cache_core[13]: Access = 0, Miss = 0, Miss_rate = -nan, Pending_hits = 0, Reservation_fails = 0
	L1D_cache_core[14]: Access = 0, Miss = 0, Miss_rate = -nan, Pending_hits = 0, Reservation_fails = 0
	L1D_cache_core[15]: Access = 0, Miss = 0, Miss_rate = -nan, Pending_hits = 0, Reservation_fails = 0
	L1D_cache_core[16]: Access = 0, Miss = 0, Miss_rate = -nan, Pending_hits = 0, Reservation_fails = 0
	L1D_cache_core[17]: Access = 0, Miss = 0, Miss_rate = -nan, Pending_hits = 0, Reservation_fails = 0
	L1D_cache_core[18]: Access = 0, Miss = 0, Miss_rate = -nan, Pending_hits = 0, Reservation_fails = 0
	L1D_cache_core[19]: Access = 0, Miss = 0, Miss_rate = -nan, Pending_hits = 0, Reservation_fails = 0
	L1D_cache_core[20]: Access = 0, Miss = 0, Miss_rate = -nan, Pending_hits = 0, Reservation_fails = 0
	L1D_cache_core[21]: Access = 0, Miss = 0, Miss_rate = -nan, Pending_hits = 0, Reservation_fails = 0
	L1D_cache_core[22]: Access = 0, Miss = 0, Miss_rate = -nan, Pending_hits = 0, Reservation_fails = 0
	L1D_cache_core[23]: Access = 0, Miss = 0, Miss_rate = -nan, Pending_hits = 0, Reservation_fails = 0
	L1D_cache_core[24]: Access = 0, Miss = 0, Miss_rate = -nan, Pending_hits = 0, Reservation_fails = 0
	L1D_cache_core[25]: Access = 0, Miss = 0, Miss_rate = -nan, Pending_hits = 0, Reservation_fails = 0
	L1D_cache_core[26]: Access = 0, Miss = 0, Miss_rate = -nan, Pending_hits = 0, Reservation_fails = 0
	L1D_cache_core[27]: Access = 0, Miss = 0, Miss_rate = -nan, Pending_hits = 0, Reservation_fails = 0
	L1D_total_cache_accesses = 0
	L1D_total_cache_misses = 0
	L1D_total_cache_pending_hits = 0
	L1D_total_cache_reservation_fails = 0
	L1D_cache_data_port_util = 0.000
	L1D_cache_fill_port_util = 0.000
L1C_cache:
	L1C_total_cache_accesses = 769184
	L1C_total_cache_misses = 2195
	L1C_total_cache_miss_rate = 0.0029
	L1C_total_cache_pending_hits = 0
	L1C_total_cache_reservation_fails = 4886
L1T_cache:
	L1T_total_cache_accesses = 0
	L1T_total_cache_misses = 0
	L1T_total_cache_pending_hits = 0
	L1T_total_cache_reservation_fails = 0

Total_core_cache_stats:
	Total_core_cache_stats_breakdown[GLOBAL_ACC_R][HIT] = 0
	Total_core_cache_stats_breakdown[GLOBAL_ACC_R][HIT_RESERVED] = 0
	Total_core_cache_stats_breakdown[GLOBAL_ACC_R][MISS] = 0
	Total_core_cache_stats_breakdown[GLOBAL_ACC_R][RESERVATION_FAIL] = 0
	Total_core_cache_stats_breakdown[LOCAL_ACC_R][HIT] = 0
	Total_core_cache_stats_breakdown[LOCAL_ACC_R][HIT_RESERVED] = 0
	Total_core_cache_stats_breakdown[LOCAL_ACC_R][MISS] = 0
	Total_core_cache_stats_breakdown[LOCAL_ACC_R][RESERVATION_FAIL] = 0
	Total_core_cache_stats_breakdown[CONST_ACC_R][HIT] = 766989
	Total_core_cache_stats_breakdown[CONST_ACC_R][HIT_RESERVED] = 0
	Total_core_cache_stats_breakdown[CONST_ACC_R][MISS] = 2195
	Total_core_cache_stats_breakdown[CONST_ACC_R][RESERVATION_FAIL] = 4886
	Total_core_cache_stats_breakdown[TEXTURE_ACC_R][HIT] = 0
	Total_core_cache_stats_breakdown[TEXTURE_ACC_R][HIT_RESERVED] = 0
	Total_core_cache_stats_breakdown[TEXTURE_ACC_R][MISS] = 0
	Total_core_cache_stats_breakdown[TEXTURE_ACC_R][RESERVATION_FAIL] = 0
	Total_core_cache_stats_breakdown[GLOBAL_ACC_W][HIT] = 0
	Total_core_cache_stats_breakdown[GLOBAL_ACC_W][HIT_RESERVED] = 0
	Total_core_cache_stats_breakdown[GLOBAL_ACC_W][MISS] = 0
	Total_core_cache_stats_breakdown[GLOBAL_ACC_W][RESERVATION_FAIL] = 0
	Total_core_cache_stats_breakdown[LOCAL_ACC_W][HIT] = 0
	Total_core_cache_stats_breakdown[LOCAL_ACC_W][HIT_RESERVED] = 0
	Total_core_cache_stats_breakdown[LOCAL_ACC_W][MISS] = 0
	Total_core_cache_stats_breakdown[LOCAL_ACC_W][RESERVATION_FAIL] = 0
	Total_core_cache_stats_breakdown[L1_WRBK_ACC][HIT] = 0
	Total_core_cache_stats_breakdown[L1_WRBK_ACC][HIT_RESERVED] = 0
	Total_core_cache_stats_breakdown[L1_WRBK_ACC][MISS] = 0
	Total_core_cache_stats_breakdown[L1_WRBK_ACC][RESERVATION_FAIL] = 0
	Total_core_cache_stats_breakdown[L2_WRBK_ACC][HIT] = 0
	Total_core_cache_stats_breakdown[L2_WRBK_ACC][HIT_RESERVED] = 0
	Total_core_cache_stats_breakdown[L2_WRBK_ACC][MISS] = 0
	Total_core_cache_stats_breakdown[L2_WRBK_ACC][RESERVATION_FAIL] = 0
	Total_core_cache_stats_breakdown[INST_ACC_R][HIT] = 7731312
	Total_core_cache_stats_breakdown[INST_ACC_R][HIT_RESERVED] = 0
	Total_core_cache_stats_breakdown[INST_ACC_R][MISS] = 8688
	Total_core_cache_stats_breakdown[INST_ACC_R][RESERVATION_FAIL] = 6846
	Total_core_cache_stats_breakdown[L1_WR_ALLOC_R][HIT] = 0
	Total_core_cache_stats_breakdown[L1_WR_ALLOC_R][HIT_RESERVED] = 0
	Total_core_cache_stats_breakdown[L1_WR_ALLOC_R][MISS] = 0
	Total_core_cache_stats_breakdown[L1_WR_ALLOC_R][RESERVATION_FAIL] = 0
	Total_core_cache_stats_breakdown[L2_WR_ALLOC_R][HIT] = 0
	Total_core_cache_stats_breakdown[L2_WR_ALLOC_R][HIT_RESERVED] = 0
	Total_core_cache_stats_breakdown[L2_WR_ALLOC_R][MISS] = 0
	Total_core_cache_stats_breakdown[L2_WR_ALLOC_R][RESERVATION_FAIL] = 0
	Total_core_cache_stats_breakdown[CONST_ACC_R][TOTAL_ACCESS] = 769184
	Total_core_cache_stats_breakdown[INST_ACC_R][TOTAL_ACCESS] = 7740000
Shader 0 warp_id issue ditsribution:
warp_id:
0, 1, 2, 3, 4, 5, 6, 7, 8, 9, 10, 11, 12, 13, 14, 15, 16, 17, 18, 19, 20, 21, 22, 23, 24, 25, 26, 27, 28, 29, 30, 31, 32, 33, 34, 35, 36, 37, 38, 39, 40, 41, 42, 43, 44, 45, 46, 47, 48, 49, 50, 51, 52, 53, 54, 55, 
distro:
10478, 13213, 13231, 13047, 13088, 13044, 13082, 10510, 9976, 12580, 12603, 12422, 12459, 12414, 12458, 9998, 9480, 11961, 11988, 11944, 11980, 11944, 11978, 9578, 9303, 11644, 11662, 11496, 11517, 11490, 11519, 9257, 9049, 11321, 11347, 11310, 11343, 11306, 11343, 9069, 8808, 11006, 11031, 11003, 11030, 11000, 11029, 8828, 9052, 11322, 11343, 11304, 11335, 11302, 11334, 9071, 
gpgpu_n_tot_thrd_icount = 485326208
gpgpu_n_tot_w_icount = 15166444
gpgpu_n_stall_shd_mem = 390750
gpgpu_n_mem_read_local = 0
gpgpu_n_mem_write_local = 0
gpgpu_n_mem_read_global = 346456
gpgpu_n_mem_write_global = 109568
gpgpu_n_mem_texture = 0
gpgpu_n_mem_const = 56
gpgpu_n_load_insn  = 3720992
gpgpu_n_store_insn = 1048576
gpgpu_n_shmem_insn = 24940324
gpgpu_n_tex_insn = 0
gpgpu_n_const_mem_insn = 0
gpgpu_n_param_mem_insn = 24613888
gpgpu_n_shmem_bkconflict = 0
gpgpu_n_cache_bkconflict = 0
gpgpu_n_intrawarp_mshr_merge = 0
gpgpu_n_cmem_portconflict = 4886
gpgpu_stall_shd_mem[c_mem][bk_conf] = 4886
gpgpu_stall_shd_mem[c_mem][mshr_rc] = 0
gpgpu_stall_shd_mem[c_mem][icnt_rc] = 0
gpgpu_stall_shd_mem[c_mem][data_port_stall] = 0
gpgpu_stall_shd_mem[t_mem][mshr_rc] = 0
gpgpu_stall_shd_mem[t_mem][icnt_rc] = 0
gpgpu_stall_shd_mem[t_mem][data_port_stall] = 0
gpgpu_stall_shd_mem[s_mem][bk_conf] = 0
gpgpu_stall_shd_mem[gl_mem][bk_conf] = 0
gpgpu_stall_shd_mem[gl_mem][coal_stall] = 324121
gpgpu_stall_shd_mem[gl_mem][data_port_stall] = 0
gpgpu_stall_shd_mem[g_mem_ld][mshr_rc] = 0
gpgpu_stall_shd_mem[g_mem_ld][icnt_rc] = 61743
gpgpu_stall_shd_mem[g_mem_ld][wb_icnt_rc] = 0
gpgpu_stall_shd_mem[g_mem_ld][wb_rsrv_fail] = 0
gpgpu_stall_shd_mem[g_mem_st][mshr_rc] = 0
gpgpu_stall_shd_mem[g_mem_st][icnt_rc] = 0
gpgpu_stall_shd_mem[g_mem_st][wb_icnt_rc] = 0
gpgpu_stall_shd_mem[g_mem_st][wb_rsrv_fail] = 0
gpgpu_stall_shd_mem[l_mem_ld][mshr_rc] = 0
gpgpu_stall_shd_mem[l_mem_ld][icnt_rc] = 0
gpgpu_stall_shd_mem[l_mem_ld][wb_icnt_rc] = 0
gpgpu_stall_shd_mem[l_mem_ld][wb_rsrv_fail] = 0
gpgpu_stall_shd_mem[l_mem_st][mshr_rc] = 0
gpgpu_stall_shd_mem[l_mem_st][icnt_rc] = 0
gpgpu_stall_shd_mem[l_mem_ld][wb_icnt_rc] = 0
gpgpu_stall_shd_mem[l_mem_ld][wb_rsrv_fail] = 0
gpu_reg_bank_conflict_stalls = 0
Warp Occupancy Distribution:
Stall:542088	W0_Idle:71005362	W0_Scoreboard:51896110	W1:0	W2:0	W3:0	W4:0	W5:8500	W6:0	W7:0	W8:28160	W9:0	W10:25600	W11:0	W12:12958	W13:8500	W14:714000	W15:0	W16:0	W17:0	W18:0	W19:0	W20:0	W21:0	W22:0	W23:0	W24:3517792	W25:0	W26:25600	W27:0	W28:3287550	W29:0	W30:0	W31:0	W32:7537784
traffic_breakdown_coretomem[CONST_ACC_R] = 448 {8:56,}
traffic_breakdown_coretomem[GLOBAL_ACC_R] = 2771648 {8:346456,}
traffic_breakdown_coretomem[GLOBAL_ACC_W] = 7856128 {40:44032,72:44032,136:21504,}
traffic_breakdown_coretomem[INST_ACC_R] = 2912 {8:364,}
traffic_breakdown_memtocore[CONST_ACC_R] = 4032 {72:56,}
traffic_breakdown_memtocore[GLOBAL_ACC_R] = 28785856 {40:114576,72:114576,136:117304,}
traffic_breakdown_memtocore[GLOBAL_ACC_W] = 876544 {8:109568,}
traffic_breakdown_memtocore[INST_ACC_R] = 49504 {136:364,}
maxmrqlatency = 540 
maxdqlatency = 0 
maxmflatency = 243881 
averagemflatency = 6299 
max_icnt2mem_latency = 243557 
max_icnt2sh_latency = 2653337 
mrq_lat_table:106168 	6582 	6107 	13964 	20677 	17048 	9420 	8748 	8276 	9 	0 	0 	0 	0 	0 	0 	0 	0 	0 	0 	0 	0 	0 	0 	0 	0 	0 	0 	0 	0 	0 	0 	
dq_lat_table:0 	0 	0 	0 	0 	0 	0 	0 	0 	0 	0 	0 	0 	0 	0 	0 	0 	0 	0 	0 	0 	0 	0 	0 	0 	0 	0 	0 	0 	0 	0 	0 	
mf_lat_table:0 	0 	0 	0 	0 	0 	0 	247990 	140623 	2906 	483 	3091 	4315 	7044 	14753 	28093 	4397 	2385 	0 	0 	0 	0 	0 	0 	0 	0 	0 	0 	0 	0 	0 	0 	
icnt2mem_lat_table:0 	0 	219076 	39728 	4749 	2068 	113624 	11079 	1558 	41 	733 	2862 	4289 	7196 	15119 	27552 	4385 	2385 	0 	0 	0 	0 	0 	0 	
icnt2sh_lat_table:0 	0 	98429 	158779 	83391 	5854 	59 	0 	0 	0 	0 	0 	0 	0 	0 	0 	0 	0 	12840 	14659 	62471 	19598 	0 	0 	
mf_lat_pw_table:0 	0 	0 	0 	0 	0 	0 	310 	91 	5 	11 	25 	30 	48 	104 	147 	38 	2 	0 	0 	0 	0 	0 	0 	0 	0 	0 	0 	0 	0 	0 	0 	
maximum concurrent accesses to same row:
dram[0]:        69        70        69        70        66        67        69        70        69        70        69        70        69        70        69        70 
dram[1]:        69        70        69        70        67        70        69        70        69        70        69        70        69        70        69        70 
dram[2]:        69        70        69        70        67        68        69        70        69        70        69        70        69        70        69        70 
dram[3]:        69        70        69        70        67        68        69        70        69        70        69        70        69        70        69        70 
dram[4]:        69        70        69        70        65        66        69        70        69        70        69        70        69        70        69        70 
dram[5]:        69        70        69        70        67        66        69        70        69        70        69        70        69        70        69        70 
dram[6]:        69        70        69        70        68        64        69        70        69        70        69        70        69        70        69        70 
dram[7]:        69        70        69        70        67        68        69        70        69        70        69        70        69        70        69        70 
dram[8]:        69        70        69        70        66        68        69        70        69        70        69        70        69        70        69        70 
dram[9]:        69        70        69        70        67        63        69        70        69        70        69        70        69        70        69        70 
dram[10]:        69        70        69        70        64        67        69        70        69        70        69        70        69        70        69        70 
maximum service time to same row:
dram[0]:    307635    307712    319638    319862    256635    256501    383132    382868    377430    377334    376792    248610    303340    303338    302059    302138 
dram[1]:    307773    308092    319827    319825    341515    341307    382867    382868    377548    377494    248539    248913    303326    303322    302068    301912 
dram[2]:    307736    308086    319648    319613    340644    340654    382809    382836    377556    377419    248618    248343    303334    303333    301497    301141 
dram[3]:    307779    307751    319610    319538    256386    256693    382830    382778    377310    377428    248263    248208    303209    303245    302051    302063 
dram[4]:    307991    308227    319476    319816    256542    256699    383038    382870    377542    377553    248148    248217    303277    303262    302065    302149 
dram[5]:    307635    307711    319724    319721    256636    256483    382865    382844    377452    377398    248157    251804    303340    303339    302071    302129 
dram[6]:    307805    308128    319643    319644    344117    343790    383231    382882    377430    377400    376319    245799    303329    303326    302065    301913 
dram[7]:    306254    308100    319606    319499    343916    343920    382790    382849    377446    377268    245802    245796    303333    303335    301547    301120 
dram[8]:    307767    307794    319476    319405    256532    256576    382863    382787    377329    377370    245797    245760    303208    303232    302041    302107 
dram[9]:    307973    308078    319479    319821    256425    256563    383040    382863    377284    377301    245802    245759    303157    303256    302064    302144 
dram[10]:    313005    312363    319718    319720    256823    256448    382836    382872    377262    377270    245813    249367    303283    303272    302080    302137 
average row accesses per activate:
dram[0]: 13.097561 13.387500 10.909091 10.732674 10.121495 10.102804 11.435643 11.514852 10.838096 10.644860 10.467890  9.862069 12.428572 12.255320 12.239130 11.680412 
dram[1]: 14.171053 13.158537 11.051546 11.368421 11.463158 10.627451 12.168421 11.213593 11.434343 11.225491 10.783019 10.463636 12.633333 13.376471 13.950617 12.402174 
dram[2]: 13.375000 13.437500 11.791209 11.612904 11.281250 10.168224 12.648352 14.708860 10.688680 10.923077 12.010527 11.415842 14.300000 14.262500 14.000000 13.423530 
dram[3]: 15.735294 16.303030 12.379311 13.645570 11.260417 10.870000 13.879519 13.903614 11.683674 13.000000 12.666667 12.571428 13.975610 13.987804 13.329412 13.294118 
dram[4]: 13.794871 13.569620 11.144330 11.144330 10.820000 11.784946 13.149426 13.552941 11.762887 11.845361 11.525252 11.087379 14.074074 13.383721 15.324325 12.808989 
dram[5]: 12.056180 12.552941 10.712872 10.653465  9.548673  9.142858 11.824742 11.696970 11.038835 10.644860 10.196428 11.336634 13.352942 12.212766 11.000000 10.800000 
dram[6]: 13.632912 12.310345 12.647058 12.157304 10.428572  8.709678 12.105263 12.505377 10.990292 11.390000 11.480000 11.145631 12.516483 12.777778 12.954023 11.773196 
dram[7]: 13.794871 14.835616 12.963856 13.000000 10.130841  9.872727 13.879519 14.358025 10.742857 11.215686 12.434783 11.570000 12.505494 13.080460 13.317647 12.820225 
dram[8]: 14.861111 13.462500 12.564706 13.658228 10.705882 10.361905 14.222222 14.246914 11.186275 11.400000 13.232558 13.348837 12.423913 13.583333 13.186047 12.391304 
dram[9]: 14.144737 14.459459 11.336843 10.752475 10.037037 10.027523 12.932584 13.843373 11.968750 12.234042 12.752809 12.052631 12.391304 13.372093 13.511905 12.127660 
dram[10]: 13.259259 13.481012 10.919192 10.742575  9.845454 10.091743 13.218390 12.344086 11.612245 10.390909 11.326733 11.116505 13.220930 12.887640 11.659794 11.156863 
average row locality = 196999/16367 = 12.036354
number of total memory accesses made:
dram[0]:         0         0         0         0         0         0         0         0         0         0         0         0         0         0         0         0 
dram[1]:         0         0         0         0         0         0         0         0         0         0         0         0         0         0         0         0 
dram[2]:         0         0         0         0         0         0         0         0         0         0         0         0         0         0         0         0 
dram[3]:         0         0         0         0         0         0         0         0         0         0         0         0         0         0         0         0 
dram[4]:         0         0         0         0         0         0         0         0         0         0         0         0         0         0         0         0 
dram[5]:         0         0         0         0         0         0         0         0         0         0         0         0         0         0         0         0 
dram[6]:         0         0         0         0         0         0         0         0         0         0         0         0         0         0         0         0 
dram[7]:         0         0         0         0         0         0         0         0         0         0         0         0         0         0         0         0 
dram[8]:         0         0         0         0         0         0         0         0         0         0         0         0         0         0         0         0 
dram[9]:         0         0         0         0         0         0         0         0         0         0         0         0         0         0         0         0 
dram[10]:         0         0         0         0         0         0         0         0         0         0         0         0         0         0         0         0 
total accesses: 0
min_bank_accesses = 0!
min_chip_accesses = 0!
number of total read accesses:
dram[0]:       561       560       560       560       560       560       560       560       560       560       548       548       560       560       560       560 
dram[1]:       560       560       560       560       560       560       560       560       560       560       549       549       560       560       560       560 
dram[2]:       560       560       560       560       560       560       560       560       560       560       549       549       560       560       560       560 
dram[3]:       560       560       560       560       560       560       560       560       560       560       549       549       560       560       560       560 
dram[4]:       560       560       560       560       560       560       560       560       560       560       549       549       560       560       561       561 
dram[5]:       560       560       560       560       560       560       560       560       560       560       548       548       560       560       561       561 
dram[6]:       560       560       560       560       560       560       560       560       560       560       548       548       560       560       561       561 
dram[7]:       560       560       560       560       560       560       560       560       560       560       548       548       560       560       561       561 
dram[8]:       560       560       560       560       560       560       560       560       560       560       548       548       560       560       561       561 
dram[9]:       560       560       560       560       560       560       560       560       560       560       548       548       560       560       561       561 
dram[10]:       560       560       560       560       560       560       560       560       560       560       548       548       560       560       561       560 
total reads: 98318
bank skew: 561/548 = 1.02
chip skew: 8940/8937 = 1.00
number of total write accesses:
dram[0]:       513       511       520       524       523       521       595       603       578       579       593       596       571       592       566       573 
dram[1]:       517       519       512       520       529       524       596       595       572       585       594       602       577       577       570       581 
dram[2]:       510       515       513       520       523       528       591       602       573       576       592       604       584       581       574       581 
dram[3]:       510       516       517       518       521       527       592       594       585       584       591       595       586       587       573       570 
dram[4]:       516       512       521       521       522       536       584       592       581       589       592       593       580       591       573       579 
dram[5]:       513       507       522       516       519       528       587       598       577       579       594       597       575       588       572       573 
dram[6]:       517       511       515       522       535       520       590       603       572       579       600       600       579       590       566       581 
dram[7]:       516       523       516       519       524       526       592       603       568       584       596       609       578       578       571       580 
dram[8]:       510       517       508       519       532       528       592       594       581       580       590       600       583       581       573       579 
dram[9]:       515       510       517       526       524       533       591       589       589       590       587       597       580       590       574       579 
dram[10]:       514       505       521       525       523       540       590       588       578       583       596       597       577       587       570       578 
total reads: 98681
bank skew: 609/505 = 1.21
chip skew: 8991/8945 = 1.01
average mf latency per bank:
dram[0]:      12140     12320     12459     12668     14585     14139     14641     14922     11571     11373     13039     12998     21743     21621     15605     15231
dram[1]:      12439     12379     12869     12887     14244     14175     15025     15151     11474     11221     13077     13079     21866     22189     15686     15255
dram[2]:      12391     12475     13145     13286     13892     13991     15214     15269     11476     11123     12963     12823     22083     22447     15690     15214
dram[3]:      12505     12165     13071     13119     14395     13911     14981     14710     11587     11483     12929     12848     21885     22274     15838     15537
dram[4]:      12492     12068     12368     12176     15033     15281     14485     14003     11717     11348     12738     12547     22163     21993     15505     15213
dram[5]:      12880     13258     12020     12128     15436     15051     13960     14195     11797     11645     12153     12191     22062     22001     14692     14218
dram[6]:      12822     12602     12286     12500     15426     15233     14368     14447     11698     11398     13653     14039     21978     22295     15124     14787
dram[7]:      12664     12743     12787     12868     14979     15071     15255     15429     11478     10937     13907     13874     22590     22828     15186     14723
dram[8]:      12693     12454     13093     13090     14705     14359     15215     15110     11176     11046     13911     13742     22308     22758     15332     14846
dram[9]:      12388     11767     12720     12618     14346     14173     14429     13991     11502     11427     14066     13984     22295     22282     15681     15570
dram[10]:      11652     11747     12504     12392     14583     14595     14202     14521     11677     11353     14147     14229     22207     21820     15536     14836
maximum mf latency per bank:
dram[0]:     177845    177708     62991     62975    124157    124372    123758    123719    123046    122891    178732    178737    178430    178446    243814    243834
dram[1]:     177759    177673     63200     63100    124378    124504    123748    123755    122986    123019    178731    178743    178558    178701    243800    243829
dram[2]:     177851    177679     63049     63011    124474    124367    123755    123764    123015    122995    178733    178740    178602    178760    243808    243831
dram[3]:     177674    177474     62995     63011    124353    124372    123760    123737    123069    123072    178741    178743    178553    178677    243807    243881
dram[4]:     177587    177594     62888     62894    124313    124414    123744    123755    123051    123004    178738    178742    178457    178511    243809    178205
dram[5]:     177791    177692     62944     62957    124214    124473    123562    123729    123015    122923    178735    178732    178441    178462    178234    178337
dram[6]:     177813    177749     63208     63113    124374    124506    123731    123756    123043    123003    178744    178760    178551    178629    178410    178424
dram[7]:     177860    177691     63333     63321    124405    124448    123783    124042    122982    123015    178738    178741    178553    178648    178330    178280
dram[8]:     177653    177476     63293     63177    124533    124349    123813    123828    123011    123071    178733    178771    178599    178679    178371    178326
dram[9]:     177570    177603     63137     63137    124404    124306    123724    123734    123050    122978    178744    178746    178418    178534    243764    243774
dram[10]:     123660    123637     63116     63013    124194    124305    123741    123799    123024    122964    178747    178750    178461    178485    243797    243810
Memory Partition 0: 
Cache L2_bank_000:
MSHR contents

Cache L2_bank_001:
MSHR contents

In Dram Latency Queue (total = 0): 
DRAM[0]: 16 bks, busW=4 BL=8 CL=12, tRRD=2 tCCD=6, tRCD=12 tRAS=28 tRP=12 tRC=40
n_cmd=4514359 n_nop=4454794 n_act=1590 n_pre=1574 n_req=17895 n_rd=35748 n_write=20653 bw_util=0.02499
n_activity=193628 dram_eff=0.5826
bk0: 2244a 4494303i bk1: 2240a 4492715i bk2: 2240a 4493419i bk3: 2240a 4492067i bk4: 2240a 4493544i bk5: 2240a 4491224i bk6: 2240a 4491331i bk7: 2240a 4490701i bk8: 2240a 4492943i bk9: 2240a 4491221i bk10: 2192a 4492229i bk11: 2192a 4490864i bk12: 2240a 4493598i bk13: 2240a 4491777i bk14: 2240a 4492752i bk15: 2240a 4491102i 
dram_util_bins: 0 0 0 0 0 0 0 0 0 0
dram_eff_bins: 0 0 0 0 0 0 0 0 0 0
mrqq: max=64 avg=0.254423
Memory Partition 1: 
Cache L2_bank_002:
MSHR contents

Cache L2_bank_003:
MSHR contents

In Dram Latency Queue (total = 0): 
DRAM[1]: 16 bks, busW=4 BL=8 CL=12, tRRD=2 tCCD=6, tRCD=12 tRAS=28 tRP=12 tRC=40
n_cmd=4514359 n_nop=4454980 n_act=1510 n_pre=1494 n_req=17908 n_rd=35752 n_write=20623 bw_util=0.02498
n_activity=193269 dram_eff=0.5834
bk0: 2240a 4494522i bk1: 2240a 4492474i bk2: 2240a 4494460i bk3: 2240a 4492794i bk4: 2240a 4494011i bk5: 2240a 4492745i bk6: 2240a 4492248i bk7: 2240a 4491374i bk8: 2240a 4492582i bk9: 2240a 4491248i bk10: 2196a 4492525i bk11: 2196a 4490758i bk12: 2240a 4493322i bk13: 2240a 4491935i bk14: 2240a 4492685i bk15: 2240a 4490911i 
dram_util_bins: 0 0 0 0 0 0 0 0 0 0
dram_eff_bins: 0 0 0 0 0 0 0 0 0 0
mrqq: max=64 avg=0.24869
Memory Partition 2: 
Cache L2_bank_004:
MSHR contents

Cache L2_bank_005:
MSHR contents

In Dram Latency Queue (total = 0): 
DRAM[2]: 16 bks, busW=4 BL=8 CL=12, tRRD=2 tCCD=6, tRCD=12 tRAS=28 tRP=12 tRC=40
n_cmd=4514359 n_nop=4455042 n_act=1449 n_pre=1433 n_req=17905 n_rd=35752 n_write=20683 bw_util=0.025
n_activity=193072 dram_eff=0.5846
bk0: 2240a 4495128i bk1: 2240a 4492774i bk2: 2240a 4494606i bk3: 2240a 4493033i bk4: 2240a 4493835i bk5: 2240a 4492619i bk6: 2240a 4492806i bk7: 2240a 4492105i bk8: 2240a 4493529i bk9: 2240a 4491915i bk10: 2196a 4492750i bk11: 2196a 4491098i bk12: 2240a 4493168i bk13: 2240a 4491244i bk14: 2240a 4492269i bk15: 2240a 4491864i 
dram_util_bins: 0 0 0 0 0 0 0 0 0 0
dram_eff_bins: 0 0 0 0 0 0 0 0 0 0
mrqq: max=64 avg=0.246068
Memory Partition 3: 
Cache L2_bank_006:
MSHR contents

Cache L2_bank_007:
MSHR contents

In Dram Latency Queue (total = 0): 
DRAM[3]: 16 bks, busW=4 BL=8 CL=12, tRRD=2 tCCD=6, tRCD=12 tRAS=28 tRP=12 tRC=40
n_cmd=4514359 n_nop=4455223 n_act=1363 n_pre=1347 n_req=17904 n_rd=35752 n_write=20674 bw_util=0.025
n_activity=193403 dram_eff=0.5835
bk0: 2240a 4495367i bk1: 2240a 4494054i bk2: 2240a 4494289i bk3: 2240a 4493565i bk4: 2240a 4493975i bk5: 2240a 4493208i bk6: 2240a 4492515i bk7: 2240a 4491910i bk8: 2240a 4492755i bk9: 2240a 4491599i bk10: 2196a 4492944i bk11: 2196a 4491998i bk12: 2240a 4492921i bk13: 2240a 4491861i bk14: 2240a 4493473i bk15: 2240a 4491702i 
dram_util_bins: 0 0 0 0 0 0 0 0 0 0
dram_eff_bins: 0 0 0 0 0 0 0 0 0 0
mrqq: max=64 avg=0.247735
Memory Partition 4: 
Cache L2_bank_008:
MSHR contents

Cache L2_bank_009:
MSHR contents

In Dram Latency Queue (total = 0): 
DRAM[4]: 16 bks, busW=4 BL=8 CL=12, tRRD=2 tCCD=6, tRCD=12 tRAS=28 tRP=12 tRC=40
n_cmd=4514359 n_nop=4455038 n_act=1442 n_pre=1426 n_req=17922 n_rd=35760 n_write=20693 bw_util=0.02501
n_activity=193410 dram_eff=0.5838
bk0: 2240a 4494376i bk1: 2240a 4493167i bk2: 2240a 4494368i bk3: 2240a 4493095i bk4: 2240a 4494460i bk5: 2240a 4492362i bk6: 2240a 4493297i bk7: 2240a 4491461i bk8: 2240a 4492906i bk9: 2240a 4491715i bk10: 2196a 4492222i bk11: 2196a 4490911i bk12: 2240a 4493946i bk13: 2240a 4492029i bk14: 2244a 4493191i bk15: 2244a 4491422i 
dram_util_bins: 0 0 0 0 0 0 0 0 0 0
dram_eff_bins: 0 0 0 0 0 0 0 0 0 0
mrqq: max=64 avg=0.249981
Memory Partition 5: 
Cache L2_bank_010:
MSHR contents

Cache L2_bank_011:
MSHR contents

In Dram Latency Queue (total = 0): 
DRAM[5]: 16 bks, busW=4 BL=8 CL=12, tRRD=2 tCCD=6, tRCD=12 tRAS=28 tRP=12 tRC=40
n_cmd=4514359 n_nop=4454743 n_act=1614 n_pre=1598 n_req=17883 n_rd=35752 n_write=20652 bw_util=0.02499
n_activity=194597 dram_eff=0.5797
bk0: 2240a 4493583i bk1: 2240a 4493088i bk2: 2240a 4494490i bk3: 2240a 4493212i bk4: 2240a 4492982i bk5: 2240a 4491241i bk6: 2240a 4492409i bk7: 2240a 4491155i bk8: 2240a 4492861i bk9: 2240a 4490942i bk10: 2192a 4492439i bk11: 2192a 4491728i bk12: 2240a 4493275i bk13: 2240a 4490955i bk14: 2244a 4492568i bk15: 2244a 4491181i 
dram_util_bins: 0 0 0 0 0 0 0 0 0 0
dram_eff_bins: 0 0 0 0 0 0 0 0 0 0
mrqq: max=64 avg=0.247766
Memory Partition 6: 
Cache L2_bank_012:
MSHR contents

Cache L2_bank_013:
MSHR contents

In Dram Latency Queue (total = 0): 
DRAM[6]: 16 bks, busW=4 BL=8 CL=12, tRRD=2 tCCD=6, tRCD=12 tRAS=28 tRP=12 tRC=40
n_cmd=4514359 n_nop=4454926 n_act=1528 n_pre=1512 n_req=17918 n_rd=35752 n_write=20641 bw_util=0.02498
n_activity=192792 dram_eff=0.585
bk0: 2240a 4494112i bk1: 2240a 4493218i bk2: 2240a 4494959i bk3: 2240a 4493801i bk4: 2240a 4493172i bk5: 2240a 4491063i bk6: 2240a 4492313i bk7: 2240a 4491278i bk8: 2240a 4493322i bk9: 2240a 4491626i bk10: 2192a 4492523i bk11: 2192a 4491902i bk12: 2240a 4492931i bk13: 2240a 4491317i bk14: 2244a 4492532i bk15: 2244a 4490670i 
dram_util_bins: 0 0 0 0 0 0 0 0 0 0
dram_eff_bins: 0 0 0 0 0 0 0 0 0 0
mrqq: max=64 avg=0.247561
Memory Partition 7: 
Cache L2_bank_014:
MSHR contents

Cache L2_bank_015:
MSHR contents

In Dram Latency Queue (total = 0): 
DRAM[7]: 16 bks, busW=4 BL=8 CL=12, tRRD=2 tCCD=6, tRCD=12 tRAS=28 tRP=12 tRC=40
n_cmd=4514359 n_nop=4455090 n_act=1447 n_pre=1433 n_req=17921 n_rd=35752 n_write=20637 bw_util=0.02498
n_activity=193339 dram_eff=0.5833
bk0: 2240a 4495097i bk1: 2240a 4493568i bk2: 2240a 4494831i bk3: 2240a 4493361i bk4: 2240a 4493267i bk5: 2240a 4492304i bk6: 2240a 4492826i bk7: 2240a 4491841i bk8: 2240a 4492743i bk9: 2240a 4491488i bk10: 2192a 4492746i bk11: 2192a 4491551i bk12: 2240a 4493006i bk13: 2240a 4491735i bk14: 2244a 4492851i bk15: 2244a 4491687i 
dram_util_bins: 0 0 0 0 0 0 0 0 0 0
dram_eff_bins: 0 0 0 0 0 0 0 0 0 0
mrqq: max=64 avg=0.248305
Memory Partition 8: 
Cache L2_bank_016:
MSHR contents

Cache L2_bank_017:
MSHR contents

In Dram Latency Queue (total = 0): 
DRAM[8]: 16 bks, busW=4 BL=8 CL=12, tRRD=2 tCCD=6, tRCD=12 tRAS=28 tRP=12 tRC=40
n_cmd=4514359 n_nop=4455104 n_act=1413 n_pre=1397 n_req=17905 n_rd=35752 n_write=20693 bw_util=0.02501
n_activity=193847 dram_eff=0.5824
bk0: 2240a 4495358i bk1: 2240a 4493088i bk2: 2240a 4494897i bk3: 2240a 4493885i bk4: 2240a 4494450i bk5: 2240a 4492685i bk6: 2240a 4492922i bk7: 2240a 4492276i bk8: 2240a 4492246i bk9: 2240a 4491459i bk10: 2192a 4493179i bk11: 2192a 4491777i bk12: 2240a 4492877i bk13: 2240a 4492607i bk14: 2244a 4492800i bk15: 2244a 4491499i 
dram_util_bins: 0 0 0 0 0 0 0 0 0 0
dram_eff_bins: 0 0 0 0 0 0 0 0 0 0
mrqq: max=64 avg=0.246701
Memory Partition 9: 
Cache L2_bank_018:
MSHR contents

Cache L2_bank_019:
MSHR contents

In Dram Latency Queue (total = 0): 
DRAM[9]: 16 bks, busW=4 BL=8 CL=12, tRRD=2 tCCD=6, tRCD=12 tRAS=28 tRP=12 tRC=40
n_cmd=4514359 n_nop=4454974 n_act=1465 n_pre=1449 n_req=17929 n_rd=35752 n_write=20719 bw_util=0.02502
n_activity=194276 dram_eff=0.5813
bk0: 2240a 4494901i bk1: 2240a 4494322i bk2: 2240a 4494525i bk3: 2240a 4493278i bk4: 2240a 4493466i bk5: 2240a 4492017i bk6: 2240a 4492513i bk7: 2240a 4492161i bk8: 2240a 4493217i bk9: 2240a 4492228i bk10: 2192a 4493608i bk11: 2192a 4491206i bk12: 2240a 4493017i bk13: 2240a 4492507i bk14: 2244a 4492956i bk15: 2244a 4491452i 
dram_util_bins: 0 0 0 0 0 0 0 0 0 0
dram_eff_bins: 0 0 0 0 0 0 0 0 0 0
mrqq: max=64 avg=0.248639
Memory Partition 10: 
Cache L2_bank_020:
MSHR contents

Cache L2_bank_021:
MSHR contents

In Dram Latency Queue (total = 0): 
DRAM[10]: 16 bks, busW=4 BL=8 CL=12, tRRD=2 tCCD=6, tRCD=12 tRAS=28 tRP=12 tRC=40
n_cmd=4514359 n_nop=4454838 n_act=1543 n_pre=1529 n_req=17909 n_rd=35748 n_write=20701 bw_util=0.02501
n_activity=193690 dram_eff=0.5829
bk0: 2240a 4494107i bk1: 2240a 4492752i bk2: 2240a 4493935i bk3: 2240a 4492458i bk4: 2240a 4493615i bk5: 2240a 4491170i bk6: 2240a 4492746i bk7: 2240a 4491045i bk8: 2240a 4493182i bk9: 2240a 4490780i bk10: 2192a 4491943i bk11: 2192a 4491366i bk12: 2240a 4493675i bk13: 2240a 4491493i bk14: 2244a 4492185i bk15: 2240a 4490809i 
dram_util_bins: 0 0 0 0 0 0 0 0 0 0
dram_eff_bins: 0 0 0 0 0 0 0 0 0 0
mrqq: max=64 avg=0.252103

========= L2 cache stats =========
L2_cache_bank[0]: Access = 20620, Miss = 4469, Miss_rate = 0.217, Pending_hits = 8045, Reservation_fails = 9
L2_cache_bank[1]: Access = 20905, Miss = 4468, Miss_rate = 0.214, Pending_hits = 8293, Reservation_fails = 9
L2_cache_bank[2]: Access = 20570, Miss = 4469, Miss_rate = 0.217, Pending_hits = 8041, Reservation_fails = 8
L2_cache_bank[3]: Access = 20910, Miss = 4469, Miss_rate = 0.214, Pending_hits = 8236, Reservation_fails = 2
L2_cache_bank[4]: Access = 20562, Miss = 4469, Miss_rate = 0.217, Pending_hits = 7943, Reservation_fails = 11
L2_cache_bank[5]: Access = 20901, Miss = 4469, Miss_rate = 0.214, Pending_hits = 8220, Reservation_fails = 6
L2_cache_bank[6]: Access = 20556, Miss = 4469, Miss_rate = 0.217, Pending_hits = 8067, Reservation_fails = 6
L2_cache_bank[7]: Access = 20897, Miss = 4469, Miss_rate = 0.214, Pending_hits = 8195, Reservation_fails = 7
L2_cache_bank[8]: Access = 20582, Miss = 4470, Miss_rate = 0.217, Pending_hits = 8062, Reservation_fails = 8
L2_cache_bank[9]: Access = 20926, Miss = 4470, Miss_rate = 0.214, Pending_hits = 8210, Reservation_fails = 2
L2_cache_bank[10]: Access = 20583, Miss = 4469, Miss_rate = 0.217, Pending_hits = 8045, Reservation_fails = 6
L2_cache_bank[11]: Access = 20925, Miss = 4469, Miss_rate = 0.214, Pending_hits = 8245, Reservation_fails = 11
L2_cache_bank[12]: Access = 20590, Miss = 4469, Miss_rate = 0.217, Pending_hits = 8090, Reservation_fails = 9
L2_cache_bank[13]: Access = 20929, Miss = 4469, Miss_rate = 0.214, Pending_hits = 8322, Reservation_fails = 8
L2_cache_bank[14]: Access = 20586, Miss = 4469, Miss_rate = 0.217, Pending_hits = 7984, Reservation_fails = 11
L2_cache_bank[15]: Access = 20925, Miss = 4469, Miss_rate = 0.214, Pending_hits = 8215, Reservation_fails = 7
L2_cache_bank[16]: Access = 20580, Miss = 4469, Miss_rate = 0.217, Pending_hits = 7943, Reservation_fails = 7
L2_cache_bank[17]: Access = 20920, Miss = 4469, Miss_rate = 0.214, Pending_hits = 8320, Reservation_fails = 12
L2_cache_bank[18]: Access = 20578, Miss = 4469, Miss_rate = 0.217, Pending_hits = 8064, Reservation_fails = 9
L2_cache_bank[19]: Access = 20921, Miss = 4469, Miss_rate = 0.214, Pending_hits = 8162, Reservation_fails = 5
L2_cache_bank[20]: Access = 20581, Miss = 4469, Miss_rate = 0.217, Pending_hits = 8058, Reservation_fails = 5
L2_cache_bank[21]: Access = 20897, Miss = 4468, Miss_rate = 0.214, Pending_hits = 8180, Reservation_fails = 6
L2_total_cache_accesses = 456444
L2_total_cache_misses = 98318
L2_total_cache_miss_rate = 0.2154
L2_total_cache_pending_hits = 178940
L2_total_cache_reservation_fails = 164
L2_total_cache_breakdown:
	L2_cache_stats_breakdown[GLOBAL_ACC_R][HIT] = 154531
	L2_cache_stats_breakdown[GLOBAL_ACC_R][HIT_RESERVED] = 126389
	L2_cache_stats_breakdown[GLOBAL_ACC_R][MISS] = 65536
	L2_cache_stats_breakdown[GLOBAL_ACC_R][RESERVATION_FAIL] = 1
	L2_cache_stats_breakdown[LOCAL_ACC_R][HIT] = 0
	L2_cache_stats_breakdown[LOCAL_ACC_R][HIT_RESERVED] = 0
	L2_cache_stats_breakdown[LOCAL_ACC_R][MISS] = 0
	L2_cache_stats_breakdown[LOCAL_ACC_R][RESERVATION_FAIL] = 0
	L2_cache_stats_breakdown[CONST_ACC_R][HIT] = 28
	L2_cache_stats_breakdown[CONST_ACC_R][HIT_RESERVED] = 27
	L2_cache_stats_breakdown[CONST_ACC_R][MISS] = 1
	L2_cache_stats_breakdown[CONST_ACC_R][RESERVATION_FAIL] = 0
	L2_cache_stats_breakdown[TEXTURE_ACC_R][HIT] = 0
	L2_cache_stats_breakdown[TEXTURE_ACC_R][HIT_RESERVED] = 0
	L2_cache_stats_breakdown[TEXTURE_ACC_R][MISS] = 0
	L2_cache_stats_breakdown[TEXTURE_ACC_R][RESERVATION_FAIL] = 0
	L2_cache_stats_breakdown[GLOBAL_ACC_W][HIT] = 24617
	L2_cache_stats_breakdown[GLOBAL_ACC_W][HIT_RESERVED] = 52183
	L2_cache_stats_breakdown[GLOBAL_ACC_W][MISS] = 32768
	L2_cache_stats_breakdown[GLOBAL_ACC_W][RESERVATION_FAIL] = 163
	L2_cache_stats_breakdown[LOCAL_ACC_W][HIT] = 0
	L2_cache_stats_breakdown[LOCAL_ACC_W][HIT_RESERVED] = 0
	L2_cache_stats_breakdown[LOCAL_ACC_W][MISS] = 0
	L2_cache_stats_breakdown[LOCAL_ACC_W][RESERVATION_FAIL] = 0
	L2_cache_stats_breakdown[L1_WRBK_ACC][HIT] = 0
	L2_cache_stats_breakdown[L1_WRBK_ACC][HIT_RESERVED] = 0
	L2_cache_stats_breakdown[L1_WRBK_ACC][MISS] = 0
	L2_cache_stats_breakdown[L1_WRBK_ACC][RESERVATION_FAIL] = 0
	L2_cache_stats_breakdown[L2_WRBK_ACC][HIT] = 0
	L2_cache_stats_breakdown[L2_WRBK_ACC][HIT_RESERVED] = 0
	L2_cache_stats_breakdown[L2_WRBK_ACC][MISS] = 0
	L2_cache_stats_breakdown[L2_WRBK_ACC][RESERVATION_FAIL] = 0
	L2_cache_stats_breakdown[INST_ACC_R][HIT] = 10
	L2_cache_stats_breakdown[INST_ACC_R][HIT_RESERVED] = 341
	L2_cache_stats_breakdown[INST_ACC_R][MISS] = 13
	L2_cache_stats_breakdown[INST_ACC_R][RESERVATION_FAIL] = 0
	L2_cache_stats_breakdown[L1_WR_ALLOC_R][HIT] = 0
	L2_cache_stats_breakdown[L1_WR_ALLOC_R][HIT_RESERVED] = 0
	L2_cache_stats_breakdown[L1_WR_ALLOC_R][MISS] = 0
	L2_cache_stats_breakdown[L1_WR_ALLOC_R][RESERVATION_FAIL] = 0
	L2_cache_stats_breakdown[L2_WR_ALLOC_R][HIT] = 0
	L2_cache_stats_breakdown[L2_WR_ALLOC_R][HIT_RESERVED] = 0
	L2_cache_stats_breakdown[L2_WR_ALLOC_R][MISS] = 0
	L2_cache_stats_breakdown[L2_WR_ALLOC_R][RESERVATION_FAIL] = 0
	L2_cache_stats_breakdown[GLOBAL_ACC_R][TOTAL_ACCESS] = 346456
	L2_cache_stats_breakdown[CONST_ACC_R][TOTAL_ACCESS] = 56
	L2_cache_stats_breakdown[GLOBAL_ACC_W][TOTAL_ACCESS] = 109568
	L2_cache_stats_breakdown[INST_ACC_R][TOTAL_ACCESS] = 364
L2_cache_data_port_util = 0.008
L2_cache_fill_port_util = 0.007

icnt_total_pkts_mem_to_simt=1270956
icnt_total_pkts_simt_to_mem=674556
LD_mem_lat_dist  0 0 0 0 0 0 0 0 0 0 0 0 0 0 0 0 0 0 0 0 0 0 0 0 0 0 0
ST_mem_lat_dist  0 0 0 0 0 0 0 0 0 0 0 0 0 0 0 0 0 0 0 0 0 0 0 0 0 0 0
----------------------------Interconnect-DETAILS--------------------------------
Class 0:
Packet latency average = 17.3221
	minimum = 6
	maximum = 752
Network latency average = 13.4975
	minimum = 6
	maximum = 747
Slowest packet = 534860
Flit latency average = 13.0225
	minimum = 6
	maximum = 743
Slowest flit = 1143041
Fragmentation average = 0.00151716
	minimum = 0
	maximum = 658
Injected packet rate average = 0.00375491
	minimum = 0.00326158 (at node 26)
	maximum = 0.00430428 (at node 41)
Accepted packet rate average = 0.00375491
	minimum = 0.00326158 (at node 26)
	maximum = 0.00430428 (at node 41)
Injected flit rate average = 0.00800231
	minimum = 0.00485339 (at node 6)
	maximum = 0.0119777 (at node 37)
Accepted flit rate average= 0.00800231
	minimum = 0.00627533 (at node 34)
	maximum = 0.00958112 (at node 17)
Injected packet length average = 2.13116
Accepted packet length average = 2.13116
Total in-flight flits = 0 (0 measured)
====== Overall Traffic Statistics ======
====== Traffic class 0 ======
Packet latency average = 17.3221 (1 samples)
	minimum = 6 (1 samples)
	maximum = 752 (1 samples)
Network latency average = 13.4975 (1 samples)
	minimum = 6 (1 samples)
	maximum = 747 (1 samples)
Flit latency average = 13.0225 (1 samples)
	minimum = 6 (1 samples)
	maximum = 743 (1 samples)
Fragmentation average = 0.00151716 (1 samples)
	minimum = 0 (1 samples)
	maximum = 658 (1 samples)
Injected packet rate average = 0.00375491 (1 samples)
	minimum = 0.00326158 (1 samples)
	maximum = 0.00430428 (1 samples)
Accepted packet rate average = 0.00375491 (1 samples)
	minimum = 0.00326158 (1 samples)
	maximum = 0.00430428 (1 samples)
Injected flit rate average = 0.00800231 (1 samples)
	minimum = 0.00485339 (1 samples)
	maximum = 0.0119777 (1 samples)
Accepted flit rate average = 0.00800231 (1 samples)
[...]
F:  7311222----T:  7313827 	 St: c0bba000 Sz: 4096 	 Sm: 0 	 T: write_back(1.758947)
F:  7313827----T:  7316432 	 St: c0b55000 Sz: 4096 	 Sm: 0 	 T: memcpy_h2d(1.758947)
F:  7313827----T:  7316432 	 St: c0397000 Sz: 4096 	 Sm: 0 	 T: write_back(1.758947)
F:  7316433----T:  7319038 	 St: c0b46000 Sz: 4096 	 Sm: 0 	 T: memcpy_h2d(1.758947)
F:  7316433----T:  7319038 	 St: c0bb6000 Sz: 4096 	 Sm: 0 	 T: write_back(1.758947)
F:  7320339----T:  7322944 	 St: c0759000 Sz: 4096 	 Sm: 0 	 T: memcpy_h2d(1.758947)
F:  7320339----T:  7322944 	 St: c0217000 Sz: 4096 	 Sm: 0 	 T: write_back(1.758947)
F:  7322945----T:  7325550 	 St: c0b5b000 Sz: 4096 	 Sm: 0 	 T: memcpy_h2d(1.758947)
F:  7322945----T:  7325550 	 St: c06d0000 Sz: 4096 	 Sm: 0 	 T: write_back(1.758947)
F:  7325550----T:  7328155 	 St: c0b58000 Sz: 4096 	 Sm: 0 	 T: memcpy_h2d(1.758947)
F:  7325550----T:  7328155 	 St: c0888000 Sz: 4096 	 Sm: 0 	 T: write_back(1.758947)
F:  7328155----T:  7330760 	 St: c0341000 Sz: 4096 	 Sm: 0 	 T: memcpy_h2d(1.758947)
F:  7328155----T:  7330760 	 St: c0152000 Sz: 4096 	 Sm: 0 	 T: write_back(1.758947)
F:  7330760----T:  7333365 	 St: c0343000 Sz: 4096 	 Sm: 0 	 T: memcpy_h2d(1.758947)
F:  7330760----T:  7333365 	 St: c0a01000 Sz: 4096 	 Sm: 0 	 T: write_back(1.758947)
F:  7333365----T:  7335970 	 St: c0345000 Sz: 4096 	 Sm: 0 	 T: memcpy_h2d(1.758947)
F:  7333365----T:  7335970 	 St: c05fe000 Sz: 4096 	 Sm: 0 	 T: write_back(1.758947)
F:  7335970----T:  7338575 	 St: c0349000 Sz: 4096 	 Sm: 0 	 T: memcpy_h2d(1.758947)
F:  7335970----T:  7338575 	 St: c085f000 Sz: 4096 	 Sm: 0 	 T: write_back(1.758947)
F:  7338575----T:  7341180 	 St: c034d000 Sz: 4096 	 Sm: 0 	 T: memcpy_h2d(1.758947)
F:  7338575----T:  7341180 	 St: c0268000 Sz: 4096 	 Sm: 0 	 T: write_back(1.758947)
F:  7341180----T:  7343785 	 St: c0350000 Sz: 4096 	 Sm: 0 	 T: memcpy_h2d(1.758947)
F:  7341180----T:  7343785 	 St: c0626000 Sz: 4096 	 Sm: 0 	 T: write_back(1.758947)
F:  7343785----T:  7346390 	 St: c0351000 Sz: 4096 	 Sm: 0 	 T: memcpy_h2d(1.758947)
F:  7343785----T:  7346390 	 St: c00f8000 Sz: 4096 	 Sm: 0 	 T: write_back(1.758947)
F:  7346390----T:  7348995 	 St: c0359000 Sz: 4096 	 Sm: 0 	 T: memcpy_h2d(1.758947)
F:  7346390----T:  7348995 	 St: c0b35000 Sz: 4096 	 Sm: 0 	 T: write_back(1.758947)
F:  7348996----T:  7351601 	 St: c035e000 Sz: 4096 	 Sm: 0 	 T: memcpy_h2d(1.758947)
F:  7348996----T:  7351601 	 St: c0768000 Sz: 4096 	 Sm: 0 	 T: write_back(1.758947)
F:  7352840----T:  7355445 	 St: c0768000 Sz: 4096 	 Sm: 0 	 T: memcpy_h2d(1.758947)
F:  7352840----T:  7355445 	 St: c0440000 Sz: 4096 	 Sm: 0 	 T: write_back(1.758947)
F:  7355445----T:  7358050 	 St: c076c000 Sz: 4096 	 Sm: 0 	 T: memcpy_h2d(1.758947)
F:  7355445----T:  7358050 	 St: c01a0000 Sz: 4096 	 Sm: 0 	 T: write_back(1.758947)
F:  7358050----T:  7360655 	 St: c0b6a000 Sz: 4096 	 Sm: 0 	 T: memcpy_h2d(1.758947)
F:  7358050----T:  7360655 	 St: c0058000 Sz: 4096 	 Sm: 0 	 T: write_back(1.758947)
F:  7360655----T:  7363260 	 St: c076f000 Sz: 4096 	 Sm: 0 	 T: memcpy_h2d(1.758947)
F:  7360655----T:  7363260 	 St: c01ba000 Sz: 4096 	 Sm: 0 	 T: write_back(1.758947)
F:  7363260----T:  7365865 	 St: c0b64000 Sz: 4096 	 Sm: 0 	 T: memcpy_h2d(1.758947)
F:  7363260----T:  7365865 	 St: c07d3000 Sz: 4096 	 Sm: 0 	 T: write_back(1.758947)
F:  7365865----T:  7368470 	 St: c0b68000 Sz: 4096 	 Sm: 0 	 T: memcpy_h2d(1.758947)
F:  7365865----T:  7368470 	 St: c09ca000 Sz: 4096 	 Sm: 0 	 T: write_back(1.758947)
F:  7368470----T:  7371075 	 St: c0b69000 Sz: 4096 	 Sm: 0 	 T: memcpy_h2d(1.758947)
F:  7368470----T:  7371075 	 St: c08f9000 Sz: 4096 	 Sm: 0 	 T: write_back(1.758947)
F:  7371076----T:  7373681 	 St: c0b6d000 Sz: 4096 	 Sm: 0 	 T: memcpy_h2d(1.758947)
F:  7371076----T:  7373681 	 St: c088b000 Sz: 4096 	 Sm: 0 	 T: write_back(1.758947)
F:  7374819----T:  7377424 	 St: c0b7b000 Sz: 4096 	 Sm: 0 	 T: memcpy_h2d(1.758947)
F:  7374819----T:  7377424 	 St: c06f1000 Sz: 4096 	 Sm: 0 	 T: write_back(1.758947)
F:  7377424----T:  7380029 	 St: c0b7f000 Sz: 4096 	 Sm: 0 	 T: memcpy_h2d(1.758947)
F:  7377424----T:  7380029 	 St: c0001000 Sz: 4096 	 Sm: 0 	 T: write_back(1.758947)
F:  7380029----T:  7382634 	 St: c0b7d000 Sz: 4096 	 Sm: 0 	 T: memcpy_h2d(1.758947)
F:  7380029----T:  7382634 	 St: c0be2000 Sz: 4096 	 Sm: 0 	 T: write_back(1.758947)
F:  7382634----T:  7385239 	 St: c0b84000 Sz: 4096 	 Sm: 0 	 T: memcpy_h2d(1.758947)
F:  7382634----T:  7385239 	 St: c0850000 Sz: 4096 	 Sm: 0 	 T: write_back(1.758947)
F:  7385239----T:  7387844 	 St: c0366000 Sz: 4096 	 Sm: 0 	 T: memcpy_h2d(1.758947)
F:  7385239----T:  7387844 	 St: c064b000 Sz: 4096 	 Sm: 0 	 T: write_back(1.758947)
F:  7387844----T:  7390449 	 St: c0369000 Sz: 4096 	 Sm: 0 	 T: memcpy_h2d(1.758947)
F:  7387844----T:  7390449 	 St: c095d000 Sz: 4096 	 Sm: 0 	 T: write_back(1.758947)
F:  7390449----T:  7393054 	 St: c036c000 Sz: 4096 	 Sm: 0 	 T: memcpy_h2d(1.758947)
F:  7390449----T:  7393054 	 St: c04dd000 Sz: 4096 	 Sm: 0 	 T: write_back(1.758947)
F:  7393055----T:  7395660 	 St: c036e000 Sz: 4096 	 Sm: 0 	 T: memcpy_h2d(1.758947)
F:  7393055----T:  7395660 	 St: c079e000 Sz: 4096 	 Sm: 0 	 T: write_back(1.758947)
F:  7396644----T:  7399249 	 St: c078a000 Sz: 4096 	 Sm: 0 	 T: memcpy_h2d(1.758947)
F:  7396644----T:  7399249 	 St: c076c000 Sz: 4096 	 Sm: 0 	 T: write_back(1.758947)
F:  7399249----T:  7401854 	 St: c078d000 Sz: 4096 	 Sm: 0 	 T: memcpy_h2d(1.758947)
F:  7399249----T:  7401854 	 St: c0281000 Sz: 4096 	 Sm: 0 	 T: write_back(1.758947)
F:  7401854----T:  7404459 	 St: c0b88000 Sz: 4096 	 Sm: 0 	 T: memcpy_h2d(1.758947)
F:  7401854----T:  7404459 	 St: c0a00000 Sz: 4096 	 Sm: 0 	 T: write_back(1.758947)
F:  7404459----T:  7407064 	 St: c0799000 Sz: 4096 	 Sm: 0 	 T: memcpy_h2d(1.758947)
F:  7404459----T:  7407064 	 St: c033e000 Sz: 4096 	 Sm: 0 	 T: write_back(1.758947)
F:  7407064----T:  7409669 	 St: c0b94000 Sz: 4096 	 Sm: 0 	 T: memcpy_h2d(1.758947)
F:  7407064----T:  7409669 	 St: c08ce000 Sz: 4096 	 Sm: 0 	 T: write_back(1.758947)
F:  7409669----T:  7412274 	 St: c0b8a000 Sz: 4096 	 Sm: 0 	 T: memcpy_h2d(1.758947)
F:  7409669----T:  7412274 	 St: c06a4000 Sz: 4096 	 Sm: 0 	 T: write_back(1.758947)
F:  7412274----T:  7414879 	 St: c0b98000 Sz: 4096 	 Sm: 0 	 T: memcpy_h2d(1.758947)
F:  7412274----T:  7414879 	 St: c00c9000 Sz: 4096 	 Sm: 0 	 T: write_back(1.758947)
F:  7414879----T:  7417484 	 St: c0b99000 Sz: 4096 	 Sm: 0 	 T: memcpy_h2d(1.758947)
F:  7414879----T:  7417484 	 St: c063e000 Sz: 4096 	 Sm: 0 	 T: write_back(1.758947)
F:  7417485----T:  7420090 	 St: c0384000 Sz: 4096 	 Sm: 0 	 T: memcpy_h2d(1.758947)
F:  7417485----T:  7420090 	 St: c09cc000 Sz: 4096 	 Sm: 0 	 T: write_back(1.758947)
F:  7420091----T:  7422696 	 St: c0397000 Sz: 4096 	 Sm: 0 	 T: memcpy_h2d(1.758947)
F:  7420091----T:  7422696 	 St: c0228000 Sz: 4096 	 Sm: 0 	 T: write_back(1.758947)
F:  7423252----T:  7425857 	 St: c079e000 Sz: 4096 	 Sm: 0 	 T: memcpy_h2d(1.758947)
F:  7423252----T:  7425857 	 St: c02ac000 Sz: 4096 	 Sm: 0 	 T: write_back(1.758947)
F:  7425857----T:  7428462 	 St: c07a7000 Sz: 4096 	 Sm: 0 	 T: memcpy_h2d(1.758947)
F:  7425857----T:  7428462 	 St: c02e1000 Sz: 4096 	 Sm: 0 	 T: write_back(1.758947)
F:  7428462----T:  7431067 	 St: c07a1000 Sz: 4096 	 Sm: 0 	 T: memcpy_h2d(1.758947)
F:  7428462----T:  7431067 	 St: c058e000 Sz: 4096 	 Sm: 0 	 T: write_back(1.758947)
F:  7431067----T:  7433672 	 St: c07ac000 Sz: 4096 	 Sm: 0 	 T: memcpy_h2d(1.758947)
F:  7431067----T:  7433672 	 St: c0a15000 Sz: 4096 	 Sm: 0 	 T: write_back(1.758947)
F:  7433672----T:  7436277 	 St: c0b9f000 Sz: 4096 	 Sm: 0 	 T: memcpy_h2d(1.758947)
F:  7433672----T:  7436277 	 St: c02f7000 Sz: 4096 	 Sm: 0 	 T: write_back(1.758947)
F:  7436277----T:  7438882 	 St: c0ba0000 Sz: 4096 	 Sm: 0 	 T: memcpy_h2d(1.758947)
F:  7436277----T:  7438882 	 St: c0996000 Sz: 4096 	 Sm: 0 	 T: write_back(1.758947)
F:  7438882----T:  7441487 	 St: c03ad000 Sz: 4096 	 Sm: 0 	 T: memcpy_h2d(1.758947)
F:  7438882----T:  7441487 	 St: c08f5000 Sz: 4096 	 Sm: 0 	 T: write_back(1.758947)
F:  7441488----T:  7444093 	 St: c03b3000 Sz: 4096 	 Sm: 0 	 T: memcpy_h2d(1.758947)
F:  7441488----T:  7444093 	 St: c05d4000 Sz: 4096 	 Sm: 0 	 T: write_back(1.758947)
F:  7444779----T:  7447384 	 St: c0bb6000 Sz: 4096 	 Sm: 0 	 T: memcpy_h2d(1.758947)
F:  7444779----T:  7447384 	 St: c0170000 Sz: 4096 	 Sm: 0 	 T: write_back(1.758947)
F:  7447384----T:  7449989 	 St: c0bba000 Sz: 4096 	 Sm: 0 	 T: memcpy_h2d(1.758947)
F:  7447384----T:  7449989 	 St: c052c000 Sz: 4096 	 Sm: 0 	 T: write_back(1.758947)
F:  7449989----T:  7452594 	 St: c0bc1000 Sz: 4096 	 Sm: 0 	 T: memcpy_h2d(1.758947)
F:  7449989----T:  7452594 	 St: c0ace000 Sz: 4096 	 Sm: 0 	 T: write_back(1.758947)
F:  7452594----T:  7455199 	 St: c07c3000 Sz: 4096 	 Sm: 0 	 T: memcpy_h2d(1.758947)
F:  7452594----T:  7455199 	 St: c00c8000 Sz: 4096 	 Sm: 0 	 T: write_back(1.758947)
F:  7455199----T:  7457804 	 St: c07d3000 Sz: 4096 	 Sm: 0 	 T: memcpy_h2d(1.758947)
F:  7455199----T:  7457804 	 St: c059c000 Sz: 4096 	 Sm: 0 	 T: write_back(1.758947)
F:  7457804----T:  7460409 	 St: c0bcb000 Sz: 4096 	 Sm: 0 	 T: memcpy_h2d(1.758947)
F:  7457804----T:  7460409 	 St: c020b000 Sz: 4096 	 Sm: 0 	 T: write_back(1.758947)
F:  7460409----T:  7463014 	 St: c0bc9000 Sz: 4096 	 Sm: 0 	 T: memcpy_h2d(1.758947)
F:  7460409----T:  7463014 	 St: c07e2000 Sz: 4096 	 Sm: 0 	 T: write_back(1.758947)
F:  7463014----T:  7465619 	 St: c0bd9000 Sz: 4096 	 Sm: 0 	 T: memcpy_h2d(1.758947)
F:  7463014----T:  7465619 	 St: c000a000 Sz: 4096 	 Sm: 0 	 T: write_back(1.758947)
F:  7465619----T:  7468224 	 St: c03b7000 Sz: 4096 	 Sm: 0 	 T: memcpy_h2d(1.758947)
F:  7465619----T:  7468224 	 St: c01d0000 Sz: 4096 	 Sm: 0 	 T: write_back(1.758947)
F:  7468224----T:  7470829 	 St: c03ba000 Sz: 4096 	 Sm: 0 	 T: memcpy_h2d(1.758947)
F:  7468224----T:  7470829 	 St: c0b96000 Sz: 4096 	 Sm: 0 	 T: write_back(1.758947)
F:  7470829----T:  7473434 	 St: c0bd2000 Sz: 4096 	 Sm: 0 	 T: memcpy_h2d(1.758947)
F:  7470829----T:  7473434 	 St: c0820000 Sz: 4096 	 Sm: 0 	 T: write_back(1.758947)
F:  7473434----T:  7476039 	 St: c03c1000 Sz: 4096 	 Sm: 0 	 T: memcpy_h2d(1.758947)
F:  7473434----T:  7476039 	 St: c020a000 Sz: 4096 	 Sm: 0 	 T: write_back(1.758947)
F:  7476039----T:  7478644 	 St: c03c5000 Sz: 4096 	 Sm: 0 	 T: memcpy_h2d(1.758947)
F:  7476039----T:  7478644 	 St: c05f9000 Sz: 4096 	 Sm: 0 	 T: write_back(1.758947)
F:  7478644----T:  7481249 	 St: c03c6000 Sz: 4096 	 Sm: 0 	 T: memcpy_h2d(1.758947)
F:  7478644----T:  7481249 	 St: c06bf000 Sz: 4096 	 Sm: 0 	 T: write_back(1.758947)
F:  7481250----T:  7483855 	 St: c03d7000 Sz: 4096 	 Sm: 0 	 T: memcpy_h2d(1.758947)
F:  7481250----T:  7483855 	 St: c03cd000 Sz: 4096 	 Sm: 0 	 T: write_back(1.758947)
F:  7484722----T:  7487327 	 St: c07db000 Sz: 4096 	 Sm: 0 	 T: memcpy_h2d(1.758947)
F:  7484722----T:  7487327 	 St: c0bde000 Sz: 4096 	 Sm: 0 	 T: write_back(1.758947)
F:  7487327----T:  7489932 	 St: c07e2000 Sz: 4096 	 Sm: 0 	 T: memcpy_h2d(1.758947)
F:  7487327----T:  7489932 	 St: c0ad1000 Sz: 4096 	 Sm: 0 	 T: write_back(1.758947)
F:  7489932----T:  7492537 	 St: c07e1000 Sz: 4096 	 Sm: 0 	 T: memcpy_h2d(1.758947)
F:  7489932----T:  7492537 	 St: c09ac000 Sz: 4096 	 Sm: 0 	 T: write_back(1.758947)
F:  7492537----T:  7495142 	 St: c0bde000 Sz: 4096 	 Sm: 0 	 T: memcpy_h2d(1.758947)
F:  7492537----T:  7495142 	 St: c058a000 Sz: 4096 	 Sm: 0 	 T: write_back(1.758947)
F:  7495142----T:  7497747 	 St: c0bdf000 Sz: 4096 	 Sm: 0 	 T: memcpy_h2d(1.758947)
F:  7495142----T:  7497747 	 St: c0abc000 Sz: 4096 	 Sm: 0 	 T: write_back(1.758947)
F:  7497747----T:  7500352 	 St: c07e7000 Sz: 4096 	 Sm: 0 	 T: memcpy_h2d(1.758947)
F:  7497747----T:  7500352 	 St: c051e000 Sz: 4096 	 Sm: 0 	 T: write_back(1.758947)
F:  7500352----T:  7502957 	 St: c07ea000 Sz: 4096 	 Sm: 0 	 T: memcpy_h2d(1.758947)
F:  7500352----T:  7502957 	 St: c02ff000 Sz: 4096 	 Sm: 0 	 T: write_back(1.758947)
F:  7502957----T:  7505562 	 St: c07eb000 Sz: 4096 	 Sm: 0 	 T: memcpy_h2d(1.758947)
F:  7502957----T:  7505562 	 St: c019f000 Sz: 4096 	 Sm: 0 	 T: write_back(1.758947)
F:  7505562----T:  7508167 	 St: c0bdd000 Sz: 4096 	 Sm: 0 	 T: memcpy_h2d(1.758947)
F:  7505562----T:  7508167 	 St: c04aa000 Sz: 4096 	 Sm: 0 	 T: write_back(1.758947)
F:  7508167----T:  7510772 	 St: c07e8000 Sz: 4096 	 Sm: 0 	 T: memcpy_h2d(1.758947)
F:  7508167----T:  7510772 	 St: c0710000 Sz: 4096 	 Sm: 0 	 T: write_back(1.758947)
F:  7510772----T:  7513377 	 St: c07f0000 Sz: 4096 	 Sm: 0 	 T: memcpy_h2d(1.758947)
F:  7510772----T:  7513377 	 St: c02a0000 Sz: 4096 	 Sm: 0 	 T: write_back(1.758947)
F:  7513377----T:  7515982 	 St: c03cd000 Sz: 4096 	 Sm: 0 	 T: memcpy_h2d(1.758947)
F:  7513377----T:  7515982 	 St: c07b7000 Sz: 4096 	 Sm: 0 	 T: write_back(1.758947)
F:  7515982----T:  7518587 	 St: c0be2000 Sz: 4096 	 Sm: 0 	 T: memcpy_h2d(1.758947)
F:  7515982----T:  7518587 	 St: c0b3d000 Sz: 4096 	 Sm: 0 	 T: write_back(1.758947)
F:  7518587----T:  7521192 	 St: c0be1000 Sz: 4096 	 Sm: 0 	 T: memcpy_h2d(1.758947)
F:  7518587----T:  7521192 	 St: c0313000 Sz: 4096 	 Sm: 0 	 T: write_back(1.758947)
F:  7521193----T:  7523798 	 St: c0be7000 Sz: 4096 	 Sm: 0 	 T: memcpy_h2d(1.758947)
F:  7521193----T:  7523798 	 St: c02dd000 Sz: 4096 	 Sm: 0 	 T: write_back(1.758947)
F:  7523799----T:  7526404 	 St: c03e3000 Sz: 4096 	 Sm: 0 	 T: memcpy_h2d(1.758947)
F:  7523799----T:  7526404 	 St: c046e000 Sz: 4096 	 Sm: 0 	 T: write_back(1.758947)
F:  7526404----T:  7529009 	 St: c03e5000 Sz: 4096 	 Sm: 0 	 T: memcpy_h2d(1.758947)
F:  7526404----T:  7529009 	 St: c048c000 Sz: 4096 	 Sm: 0 	 T: write_back(1.758947)
F:  7529009----T:  7531614 	 St: c03e6000 Sz: 4096 	 Sm: 0 	 T: memcpy_h2d(1.758947)
F:  7529009----T:  7531614 	 St: c0a5c000 Sz: 4096 	 Sm: 0 	 T: write_back(1.758947)
F:  7531615----T:  7534220 	 St: c03ef000 Sz: 4096 	 Sm: 0 	 T: memcpy_h2d(1.758947)
F:  7531615----T:  7534220 	 St: c05a9000 Sz: 4096 	 Sm: 0 	 T: write_back(1.758947)
F:  7534795----T:  7537400 	 St: c07f2000 Sz: 4096 	 Sm: 0 	 T: memcpy_h2d(1.758947)
F:  7534795----T:  7537400 	 St: c0bcb000 Sz: 4096 	 Sm: 0 	 T: write_back(1.758947)
F:  7537400----T:  7540005 	 St: c07fc000 Sz: 4096 	 Sm: 0 	 T: memcpy_h2d(1.758947)
F:  7537400----T:  7540005 	 St: c01c3000 Sz: 4096 	 Sm: 0 	 T: write_back(1.758947)
F:  7540005----T:  7542610 	 St: c0bfb000 Sz: 4096 	 Sm: 0 	 T: memcpy_h2d(1.758947)
F:  7540005----T:  7542610 	 St: c0251000 Sz: 4096 	 Sm: 0 	 T: write_back(1.758947)
F:  7542610----T:  7545215 	 St: c0bf4000 Sz: 4096 	 Sm: 0 	 T: memcpy_h2d(1.758947)
F:  7542610----T:  7545215 	 St: c0652000 Sz: 4096 	 Sm: 0 	 T: write_back(1.758947)
F:  7545215----T:  7547820 	 St: c0bff000 Sz: 4096 	 Sm: 0 	 T: memcpy_h2d(1.758947)
F:  7545215----T:  7547820 	 St: c0a57000 Sz: 4096 	 Sm: 0 	 T: write_back(1.758947)
F:  7547821----T:  7550426 	 St: c0bf2000 Sz: 4096 	 Sm: 0 	 T: memcpy_h2d(1.758947)
F:  7547821----T:  7550426 	 St: c0761000 Sz: 4096 	 Sm: 0 	 T: write_back(1.758947)
F:  7550426----T:  7553031 	 St: c03fd000 Sz: 4096 	 Sm: 0 	 T: memcpy_h2d(1.758947)
F:  7550426----T:  7553031 	 St: c06d6000 Sz: 4096 	 Sm: 0 	 T: write_back(1.758947)
F:  7553031----T:  7555636 	 St: c03ff000 Sz: 4096 	 Sm: 0 	 T: memcpy_h2d(1.758947)
F:  7553031----T:  7555636 	 St: c0367000 Sz: 4096 	 Sm: 0 	 T: write_back(1.758947)
F:  7555636----T:  7558241 	 St: c03f3000 Sz: 4096 	 Sm: 0 	 T: memcpy_h2d(1.758947)
F:  7555636----T:  7558241 	 St: c01c6000 Sz: 4096 	 Sm: 0 	 T: write_back(1.758947)
F:  7558242----T:  7560847 	 St: c03f7000 Sz: 4096 	 Sm: 0 	 T: memcpy_h2d(1.758947)
F:  7558242----T:  7560847 	 St: c0bea000 Sz: 4096 	 Sm: 0 	 T: write_back(1.758947)
F:  7563323----T:  7565928 	 St: 0 Sz: 4096 	 Sm: 0 	 T: device_sync(1.758947)
F:  7563323----T:  7571563 	 St: 0 Sz: 61440 	 Sm: 0 	 T: device_sync(5.563808)
F:  7574168----T:  7576773 	 St: 0 Sz: 4096 	 Sm: 0 	 T: device_sync(1.758947)
F:  7574168----T:  7582408 	 St: 0 Sz: 61440 	 Sm: 0 	 T: device_sync(5.563808)
F:  7585013----T:  7587618 	 St: 0 Sz: 4096 	 Sm: 0 	 T: device_sync(1.758947)
F:  7585013----T:  7600708 	 St: 0 Sz: 126976 	 Sm: 0 	 T: device_sync(10.597569)
F:  7603313----T:  7605918 	 St: 0 Sz: 4096 	 Sm: 0 	 T: device_sync(1.758947)
F:  7603313----T:  7634036 	 St: 0 Sz: 258048 	 Sm: 0 	 T: device_sync(20.744766)
F:  7636641----T:  7639246 	 St: 0 Sz: 4096 	 Sm: 0 	 T: device_sync(1.758947)
F:  7636641----T:  7697477 	 St: 0 Sz: 520192 	 Sm: 0 	 T: device_sync(41.077652)
F:  7700082----T:  7702687 	 St: 0 Sz: 4096 	 Sm: 0 	 T: device_sync(1.758947)
F:  7700082----T:  7821171 	 St: 0 Sz: 1044480 	 Sm: 0 	 T: device_sync(81.761650)
F:  7823776----T:  7826381 	 St: 0 Sz: 4096 	 Sm: 0 	 T: device_sync(1.758947)
F:  7823776----T:  7832016 	 St: 0 Sz: 61440 	 Sm: 0 	 T: device_sync(5.563808)
F:  7834621----T:  7837226 	 St: 0 Sz: 4096 	 Sm: 0 	 T: device_sync(1.758947)
F:  7834621----T:  7842861 	 St: 0 Sz: 61440 	 Sm: 0 	 T: device_sync(5.563808)
F:  7845466----T:  7848071 	 St: 0 Sz: 4096 	 Sm: 0 	 T: device_sync(1.758947)
F:  7845466----T:  7861161 	 St: 0 Sz: 126976 	 Sm: 0 	 T: device_sync(10.597569)
F:  7863766----T:  7866371 	 St: 0 Sz: 4096 	 Sm: 0 	 T: device_sync(1.758947)
F:  7863766----T:  7894489 	 St: 0 Sz: 258048 	 Sm: 0 	 T: device_sync(20.744766)
F:  7897094----T:  7899699 	 St: 0 Sz: 4096 	 Sm: 0 	 T: device_sync(1.758947)
F:  7897094----T:  7957930 	 St: 0 Sz: 520192 	 Sm: 0 	 T: device_sync(41.077652)
F:  7960535----T:  7963140 	 St: 0 Sz: 4096 	 Sm: 0 	 T: device_sync(1.758947)
F:  7960535----T:  8081624 	 St: 0 Sz: 1044480 	 Sm: 0 	 T: device_sync(81.761650)
F:  8084229----T:  8086834 	 St: 0 Sz: 4096 	 Sm: 0 	 T: device_sync(1.758947)
F:  8084229----T:  8092469 	 St: 0 Sz: 61440 	 Sm: 0 	 T: device_sync(5.563808)
F:  8095074----T:  8097679 	 St: 0 Sz: 4096 	 Sm: 0 	 T: device_sync(1.758947)
F:  8095074----T:  8103314 	 St: 0 Sz: 61440 	 Sm: 0 	 T: device_sync(5.563808)
F:  8105919----T:  8108524 	 St: 0 Sz: 4096 	 Sm: 0 	 T: device_sync(1.758947)
F:  8105919----T:  8121614 	 St: 0 Sz: 126976 	 Sm: 0 	 T: device_sync(10.597569)
F:  8124219----T:  8126824 	 St: 0 Sz: 4096 	 Sm: 0 	 T: device_sync(1.758947)
F:  8124219----T:  8154942 	 St: 0 Sz: 258048 	 Sm: 0 	 T: device_sync(20.744766)
F:  8157547----T:  8160152 	 St: 0 Sz: 4096 	 Sm: 0 	 T: device_sync(1.758947)
F:  8157547----T:  8218383 	 St: 0 Sz: 520192 	 Sm: 0 	 T: device_sync(41.077652)
F:  8220988----T:  8223593 	 St: 0 Sz: 4096 	 Sm: 0 	 T: device_sync(1.758947)
F:  8220988----T:  8342077 	 St: 0 Sz: 1044480 	 Sm: 0 	 T: device_sync(81.761650)
F:  8344682----T:  8347287 	 St: 0 Sz: 4096 	 Sm: 0 	 T: device_sync(1.758947)
F:  8344682----T:  8352922 	 St: 0 Sz: 61440 	 Sm: 0 	 T: device_sync(5.563808)
F:  8355527----T:  8358132 	 St: 0 Sz: 4096 	 Sm: 0 	 T: device_sync(1.758947)
F:  8355527----T:  8363767 	 St: 0 Sz: 61440 	 Sm: 0 	 T: device_sync(5.563808)
F:  8366372----T:  8368977 	 St: 0 Sz: 4096 	 Sm: 0 	 T: device_sync(1.758947)
F:  8366372----T:  8382067 	 St: 0 Sz: 126976 	 Sm: 0 	 T: device_sync(10.597569)
F:  8384672----T:  8387277 	 St: 0 Sz: 4096 	 Sm: 0 	 T: device_sync(1.758947)
F:  8384672----T:  8415395 	 St: 0 Sz: 258048 	 Sm: 0 	 T: device_sync(20.744766)
F:  8418000----T:  8420605 	 St: 0 Sz: 4096 	 Sm: 0 	 T: device_sync(1.758947)
F:  8418000----T:  8438385 	 St: 0 Sz: 167936 	 Sm: 0 	 T: device_sync(13.764348)
Tot_prefetch_time: 0(cycle), 0.000000(us)
Tot_kernel_exec_time: 6674723(cycle), 4506.902832(us)
Tot_kernel_exec_time_and_fault_time: 133833383(cycle), 90366.906250(us)
Tot_memcpy_h2d_time: 6313254(cycle), 4262.832031(us)
Tot_memcpy_d2h_time: 0(cycle), 0.000000(us)
Tot_memcpy_time: 6313254(cycle), 4262.832031(us)
Tot_devicesync_time: 877667(cycle), 592.617798(us)
Tot_writeback_time: 4939080(cycle), 3334.962891(us)
Tot_dma_time: 0(cycle), 0.000000(us)
Tot_memcpy_d2h_sync_wb_time: 5816747(cycle), 3927.580811(us)
GPGPU-Sim: *** exit detected ***
