

        *** GPGPU-Sim Simulator Version 3.2.2  [build gpgpu-sim_git-commit-7c62de1d26a7fea160a1181332b97276bc435f13_modified_1] ***


GPGPU-Sim PTX: simulation mode 0 (can change with PTX_SIM_MODE_FUNC environment variable:
               1=functional simulation only, 0=detailed performance simulator)
GPGPU-Sim: Configuration options:

-network_mode                           1 # Interconnection network mode
-inter_config_file   config_fermi_islip.icnt # Interconnection network config file
-gpgpu_ptx_use_cuobjdump                    1 # Use cuobjdump to extract ptx and sass from binaries
-gpgpu_experimental_lib_support                    0 # Try to extract code from cuda libraries [Broken because of unknown cudaGetExportTable]
-gpgpu_ptx_convert_to_ptxplus                    0 # Convert SASS (native ISA) to ptxplus and run ptxplus
-gpgpu_ptx_force_max_capability                   20 # Force maximum compute capability
-gpgpu_ptx_inst_debug_to_file                    0 # Dump executed instructions' debug information to file
-gpgpu_ptx_inst_debug_file       inst_debug.txt # Executed instructions' debug output file
-gpgpu_ptx_inst_debug_thread_uid                    1 # Thread UID for executed instructions' debug output
-gpgpu_simd_model                       1 # 1 = post-dominator
-gpgpu_shader_core_pipeline              2048:32 # shader core pipeline config, i.e., {<nthread>:<warpsize>}
-gpgpu_tex_cache:l1  16:128:24,L:R:m:N:L,F:128:4,128:2 # per-shader L1 texture cache  (READ-ONLY) config  {<nsets>:<bsize>:<assoc>,<rep>:<wr>:<alloc>:<wr_alloc>,<mshr>:<N>:<merge>,<mq>:<rf>}
-gpgpu_const_cache:l1 128:64:2,L:R:f:N:L,A:2:64,4 # per-shader L1 constant memory cache  (READ-ONLY) config  {<nsets>:<bsize>:<assoc>,<rep>:<wr>:<alloc>:<wr_alloc>,<mshr>:<N>:<merge>,<mq>} 
-gpgpu_cache:il1     8:128:4,L:R:f:N:L,A:2:48,4 # shader L1 instruction cache config  {<nsets>:<bsize>:<assoc>,<rep>:<wr>:<alloc>:<wr_alloc>,<mshr>:<N>:<merge>,<mq>} 
-gpgpu_cache:dl1     64:128:6,L:L:m:N:H,A:128:8,8 # per-shader L1 data cache config  {<nsets>:<bsize>:<assoc>,<rep>:<wr>:<alloc>:<wr_alloc>,<mshr>:<N>:<merge>,<mq> | none}
-gpgpu_cache:dl1PrefL1                 none # per-shader L1 data cache config  {<nsets>:<bsize>:<assoc>,<rep>:<wr>:<alloc>:<wr_alloc>,<mshr>:<N>:<merge>,<mq> | none}
-gpgpu_cache:dl1PrefShared                 none # per-shader L1 data cache config  {<nsets>:<bsize>:<assoc>,<rep>:<wr>:<alloc>:<wr_alloc>,<mshr>:<N>:<merge>,<mq> | none}
-gmem_skip_L1D                          1 # global memory access skip L1D cache (implements -Xptxas -dlcm=cg, default=no skip)
-gpgpu_perfect_mem                      0 # enable perfect memory mode (no cache miss)
-n_regfile_gating_group                    4 # group of lanes that should be read/written together)
-gpgpu_clock_gated_reg_file                    0 # enable clock gated reg file for power calculations
-gpgpu_clock_gated_lanes                    0 # enable clock gated lanes for power calculations
-gpgpu_shader_registers                65536 # Number of registers per shader core. Limits number of concurrent CTAs. (default 8192)
-gpgpu_shader_cta                      32 # Maximum number of concurrent CTAs in shader (default 8)
-gpgpu_num_cta_barriers                   16 # Maximum number of named barriers per CTA (default 16)
-gpgpu_n_clusters                      28 # number of processing clusters
-gpgpu_n_cores_per_cluster                    1 # number of simd cores per cluster
-gpgpu_n_cluster_ejection_buffer_size                    8 # number of packets in ejection buffer
-gpgpu_n_ldst_response_buffer_size                    2 # number of response packets in ld/st unit ejection buffer
-gpgpu_shmem_size                   16384 # Size of shared memory per shader core (default 16kB)
-gpgpu_shmem_size                   98304 # Size of shared memory per shader core (default 16kB)
-gpgpu_shmem_size_PrefL1                16384 # Size of shared memory per shader core (default 16kB)
-gpgpu_shmem_size_PrefShared                16384 # Size of shared memory per shader core (default 16kB)
-gpgpu_shmem_num_banks                   32 # Number of banks in the shared memory in each shader core (default 16)
-gpgpu_shmem_limited_broadcast                    0 # Limit shared memory to do one broadcast per cycle (default on)
-gpgpu_shmem_warp_parts                    1 # Number of portions a warp is divided into for shared memory bank conflict check 
-gpgpu_warpdistro_shader                   -1 # Specify which shader core to collect the warp size distribution from
-gpgpu_warp_issue_shader                    0 # Specify which shader core to collect the warp issue distribution from
-gpgpu_local_mem_map                    1 # Mapping from local memory space address to simulated GPU physical address space (default = enabled)
-gpgpu_num_reg_banks                   32 # Number of register banks (default = 8)
-gpgpu_reg_bank_use_warp_id                    0 # Use warp ID in mapping registers to banks (default = off)
-gpgpu_operand_collector_num_units_sp                   20 # number of collector units (default = 4)
-gpgpu_operand_collector_num_units_sfu                    4 # number of collector units (default = 4)
-gpgpu_operand_collector_num_units_mem                    8 # number of collector units (default = 2)
-gpgpu_operand_collector_num_units_gen                    0 # number of collector units (default = 0)
-gpgpu_operand_collector_num_in_ports_sp                    4 # number of collector unit in ports (default = 1)
-gpgpu_operand_collector_num_in_ports_sfu                    1 # number of collector unit in ports (default = 1)
-gpgpu_operand_collector_num_in_ports_mem                    1 # number of collector unit in ports (default = 1)
-gpgpu_operand_collector_num_in_ports_gen                    0 # number of collector unit in ports (default = 0)
-gpgpu_operand_collector_num_out_ports_sp                    4 # number of collector unit in ports (default = 1)
-gpgpu_operand_collector_num_out_ports_sfu                    1 # number of collector unit in ports (default = 1)
-gpgpu_operand_collector_num_out_ports_mem                    1 # number of collector unit in ports (default = 1)
-gpgpu_operand_collector_num_out_ports_gen                    0 # number of collector unit in ports (default = 0)
-gpgpu_coalesce_arch                   13 # Coalescing arch (default = 13, anything else is off for now)
-gpgpu_num_sched_per_core                    2 # Number of warp schedulers per core
-gpgpu_max_insn_issue_per_warp                    2 # Max number of instructions that can be issued per warp in one cycle by scheduler
-gpgpu_simt_core_sim_order                    1 # Select the simulation order of cores in a cluster (0=Fix, 1=Round-Robin)
-gpgpu_pipeline_widths        4,1,1,4,1,1,6 # Pipeline widths ID_OC_SP,ID_OC_SFU,ID_OC_MEM,OC_EX_SP,OC_EX_SFU,OC_EX_MEM,EX_WB
-gpgpu_num_sp_units                     4 # Number of SP units (default=1)
-gpgpu_num_sfu_units                    1 # Number of SF units (default=1)
-gpgpu_num_mem_units                    1 # Number if ldst units (default=1) WARNING: not hooked up to anything
-gpgpu_scheduler                      gto # Scheduler configuration: < lrr | gto | two_level_active > If two_level_active:<num_active_warps>:<inner_prioritization>:<outer_prioritization>For complete list of prioritization values see shader.h enum scheduler_prioritization_typeDefault: gto
-gpgpu_concurrent_kernel_sm                    0 # Support concurrent kernels on a SM (default = disabled)
-tlb_size                            4096 # Number of tlb entries per SM.
-gpgpu_dram_scheduler                    1 # 0 = fifo, 1 = FR-FCFS (defaul)
-gpgpu_dram_partition_queues              8:8:8:8 # i2$:$2d:d2$:$2i
-l2_ideal                               0 # Use a ideal L2 cache that always hit
-gpgpu_cache:dl2     64:128:16,L:B:m:W:L,A:1024:1024,4:0,32 # unified banked L2 data cache config  {<nsets>:<bsize>:<assoc>,<rep>:<wr>:<alloc>:<wr_alloc>,<mshr>:<N>:<merge>,<mq>}
-gpgpu_cache:dl2_texture_only                    0 # L2 cache used for texture only
-gpgpu_n_mem                           11 # number of memory modules (e.g. memory controllers) in gpu
-gpgpu_n_sub_partition_per_mchannel                    2 # number of memory subpartition in each memory module
-gpgpu_n_mem_per_ctrlr                    1 # number of memory chips per memory controller
-gpgpu_memlatency_stat                   14 # track and display latency statistics 0x2 enables MC, 0x4 enables queue logs
-gpgpu_frfcfs_dram_sched_queue_size                   64 # 0 = unlimited (default); # entries per chip
-gpgpu_dram_return_queue_size                  116 # 0 = unlimited (default); # entries per chip
-gpgpu_dram_buswidth                    4 # default = 4 bytes (8 bytes per cycle at DDR)
-gpgpu_dram_burst_length                    8 # Burst length of each DRAM request (default = 4 data bus cycle)
-dram_data_command_freq_ratio                    4 # Frequency ratio between DRAM data bus and command bus (default = 2 times, i.e. DDR)
-gpgpu_dram_timing_opt nbk=16:CCD=2:RRD=6:RCD=12:RAS=28:RP=12:RC=40: CL=12:WL=4:CDLR=5:WR=12:nbkgrp=1:CCDL=0:RTPL=0 # DRAM timing parameters = {nbk:tCCD:tRRD:tRCD:tRAS:tRP:tRC:CL:WL:tCDLR:tWR:nbkgrp:tCCDL:tRTPL}
-rop_latency                          120 # ROP queue latency (default 85)
-dram_latency                         100 # DRAM latency (default 30)
-gpgpu_mem_addr_mapping dramid@8;00000000.00000000.00000000.00000000.0000RRRR.RRRRRRRR.RBBBCCCC.BCCSSSSS # mapping memory address to dram model {dramid@<start bit>;<memory address map>}
-gpgpu_mem_addr_test                    0 # run sweep test to check address mapping for aliased address
-gpgpu_mem_address_mask                    1 # 0 = old addressing mask, 1 = new addressing mask, 2 = new add. mask + flipped bank sel and chip sel bits
-gpuwattch_xml_file  gpuwattch_geforcegtx1080ti.xml # GPUWattch XML file
-power_simulation_enabled                    1 # Turn on power simulator (1=On, 0=Off)
-power_per_cycle_dump                    0 # Dump detailed power output each cycle
-power_trace_enabled                    0 # produce a file for the power trace (1=On, 0=Off)
-power_trace_zlevel                     6 # Compression level of the power trace output log (0=no comp, 9=highest)
-steady_power_levels_enabled                    0 # produce a file for the steady power levels (1=On, 0=Off)
-steady_state_definition                  8:4 # allowed deviation:number of samples
-gpgpu_max_cycle                        0 # terminates gpu simulation early (0 = no limit)
-gpgpu_max_insn                         0 # terminates gpu simulation early (0 = no limit)
-gpgpu_max_cta                          0 # terminates gpu simulation early (0 = no limit)
-gpgpu_runtime_stat                   500 # display runtime statistics such as dram utilization {<freq>:<flag>}
-liveness_message_freq                    1 # Minimum number of seconds between simulation liveness messages (0 = always print)
-gpgpu_flush_l1_cache                    0 # Flush L1 cache at the end of each kernel call
-gpgpu_flush_l2_cache                    0 # Flush L2 cache at the end of each kernel call
-gpgpu_deadlock_detect                    0 # Stop the simulation at deadlock (1=on (default), 0=off)
-gpgpu_ptx_instruction_classification                    0 # if enabled will classify ptx instruction types per kernel (Max 255 kernels now)
-gpgpu_ptx_sim_mode                     0 # Select between Performance (default) or Functional simulation (1)
-gpgpu_clock_domains 1481.0:2962.0:1481.0:2750.0 # Clock Domain Frequencies in MhZ {<Core Clock>:<ICNT Clock>:<L2 Clock>:<DRAM Clock>}
-gpgpu_max_concurrent_kernel                    8 # maximum kernels that can run concurrently on GPU
-gpgpu_cflog_interval                    0 # Interval between each snapshot in control flow logger
-visualizer_enabled                     0 # Turn on visualizer output (1=On, 0=Off)
-visualizer_outputfile                 NULL # Specifies the output log file for visualizer
-visualizer_zlevel                      6 # Compression level of the visualizer output log (0=no comp, 9=highest)
-trace_enabled                          0 # Turn on traces
-trace_components                    none # comma seperated list of traces to enable. Complete list found in trace_streams.tup. Default none
-trace_sampling_core                    0 # The core which is printed using CORE_DPRINTF. Default 0
-trace_sampling_memory_partition                   -1 # The memory partition which is printed using MEMPART_DPRINTF. Default -1 (i.e. all)
-gddr_size                      2.27136MB # Size of GDDR in MB/GB.(GLOBAL_HEAP_START, GLOBAL_HEAP_START + gddr_size) would be used for unmanged memory, (GLOBAL_HEAP_START + gddr_size, GLOBAL_HEAP_START + gddr_size*2) would be used for managed memory. 
-page_table_walk_latency                  100 # Average page table walk latency (in core cycle).
-eviction_policy                   random # Memory eviction policy: lru or random.
-percentage_of_free_page_buffer                    0 # Percentage of free page buffer to trigger the page eviction.
-page_size                            4KB # GDDR page size, only 4KB/2MB avaliable.
-pcie_bandwith                   16.0GB/s # PCI-e bandwith per direction, in GB/s.
-sim_prof_enable                        1 # Enable gpgpu-sim profiler
-hardware_prefetch                      1 # Enable gpgpu-sim hardware prefetcher
-page_fault_latency                 66645 # Average fault latency (in core cycle).
-enable_accurate_simulation                    0 # Enable page fault functional simulation.
-enable_ptx_file_line_stats                    1 # Turn on PTX source line statistic profiling. (1 = On)
-ptx_line_stats_filename gpgpu_inst_stats.txt # Output file for PTX source line statistics.
-gpgpu_kernel_launch_latency               222150 # Kernel launch latency in cycles. Default: 0
-gpgpu_cdp_enabled                      0 # Turn on CDP
-save_embedded_ptx                      0 # saves ptx files embedded in binary as <n>.ptx
-keep                                   0 # keep intermediate files created by GPGPU-Sim when interfacing with external programs
-gpgpu_ptx_save_converted_ptxplus                    0 # Saved converted ptxplus to a file
-ptx_opcode_latency_int         4,13,4,5,145 # Opcode latencies for integers <ADD,MAX,MUL,MAD,DIV>Default 1,1,19,25,145
-ptx_opcode_latency_fp          4,13,4,5,39 # Opcode latencies for single precision floating points <ADD,MAX,MUL,MAD,DIV>Default 1,1,1,1,30
-ptx_opcode_latency_dp         8,19,8,8,330 # Opcode latencies for double precision floating points <ADD,MAX,MUL,MAD,DIV>Default 8,8,8,8,335
-ptx_opcode_initiation_int            1,2,2,2,8 # Opcode initiation intervals for integers <ADD,MAX,MUL,MAD,DIV>Default 1,1,4,4,32
-ptx_opcode_initiation_fp            1,2,1,1,4 # Opcode initiation intervals for single precision floating points <ADD,MAX,MUL,MAD,DIV>Default 1,1,1,1,5
-ptx_opcode_initiation_dp          1,2,1,1,130 # Opcode initiation intervals for double precision floating points <ADD,MAX,MUL,MAD,DIV>Default 8,8,8,8,130
-cdp_latency         7200,8000,100,12000,1600 # CDP API latency <cudaStreamCreateWithFlags, cudaGetParameterBufferV2_init_perWarp, cudaGetParameterBufferV2_perKernel, cudaLaunchDeviceV2_init_perWarp, cudaLaunchDevicV2_perKernel>Default 7200,8000,100,12000,1600
DRAM Timing Options:
nbk                                    16 # number of banks
CCD                                     2 # column to column delay
RRD                                     6 # minimal delay between activation of rows in different banks
RCD                                    12 # row to column delay
RAS                                    28 # time needed to activate row
RP                                     12 # time needed to precharge (deactivate) row
RC                                     40 # row cycle time
CDLR                                    5 # switching from write to read (changes tWTR)
WR                                     12 # last data-in to row precharge
CL                                     12 # CAS latency
WL                                      4 # Write latency
nbkgrp                                  1 # number of bank groups
CCDL                                    0 # column to column delay between accesses to different bank groups
RTPL                                    0 # read to precharge delay between accesses to different bank groups
Total number of memory sub partition = 22
addr_dec_mask[CHIP]  = 0000000000000000 	high:64 low:0
addr_dec_mask[BK]    = 0000000000007080 	high:15 low:7
addr_dec_mask[ROW]   = 000000000fff8000 	high:28 low:15
addr_dec_mask[COL]   = 0000000000000f7f 	high:12 low:0
addr_dec_mask[BURST] = 000000000000001f 	high:5 low:0
sub_partition_id_mask = 0000000000000080
GPGPU-Sim uArch: clock freqs: 1481000000.000000:2962000000.000000:1481000000.000000:2750000000.000000
GPGPU-Sim uArch: clock periods: 0.00000000067521944632:0.00000000033760972316:0.00000000067521944632:0.00000000036363636364
*** Initializing Memory Statistics ***
GPGPU-Sim uArch: interconnect node map (shaderID+MemID to icntID)
GPGPU-Sim uArch: Memory nodes ID start from index: 28
GPGPU-Sim uArch:    0   1   2   3   4   5   6
GPGPU-Sim uArch:    7   8   9  10  11  12  13
GPGPU-Sim uArch:   14  15  16  17  18  19  20
GPGPU-Sim uArch:   21  22  23  24  25  26  27
GPGPU-Sim uArch:   28  29  30  31  32  33  34
GPGPU-Sim uArch:   35  36  37  38  39  40  41
GPGPU-Sim uArch:   42  43  44  45  46  47  48
GPGPU-Sim uArch:   49
GPGPU-Sim uArch: interconnect node reverse map (icntID to shaderID+MemID)
GPGPU-Sim uArch: Memory nodes start from ID: 28
GPGPU-Sim uArch:    0   1   2   3   4   5   6
GPGPU-Sim uArch:    7   8   9  10  11  12  13
GPGPU-Sim uArch:   14  15  16  17  18  19  20
GPGPU-Sim uArch:   21  22  23  24  25  26  27
GPGPU-Sim uArch:   28  29  30  31  32  33  34
GPGPU-Sim uArch:   35  36  37  38  39  40  41
GPGPU-Sim uArch:   42  43  44  45  46  47  48
GPGPU-Sim uArch:   49
f682ea5309f2b8ba93f360d605fc1e48  /home/gpuser/Desktop/gpgpu-sim_UVM/benchmarks/Managed/bfs/bfs
GPGPU-Sim uArch: performance model initialization complete.
GPGPU-Sim PTX: __cudaRegisterFatBinary, fat_cubin_handle = 1, filename=default
self exe links to: /home/gpuser/Desktop/gpgpu-sim_UVM/benchmarks/Managed/bfs/bfs
Running md5sum using "md5sum /home/gpuser/Desktop/gpgpu-sim_UVM/benchmarks/Managed/bfs/bfs "
Parsing file _cuobjdump_complete_output_c2zhDK
######### cuobjdump parser ########
## Adding new section ELF
Adding arch: sm_20
Adding identifier: default
## Adding new section ELF
Adding arch: sm_20
Adding identifier: default
## Adding new section PTX
Adding ptx filename: _cuobjdump_1.ptx
Adding arch: sm_20
Adding identifier: default
Done parsing!!!
GPGPU-Sim PTX: __cudaRegisterFunction _Z7Kernel2PbS_S_S_i : hostFun 0x0x401649, fat_cubin_handle = 1
GPGPU-Sim PTX: instruction assembly for function '_Z6KernelP4NodePiPbS2_S2_S1_i'...   done.
GPGPU-Sim PTX: finding reconvergence points for '_Z6KernelP4NodePiPbS2_S2_S1_i'...
GPGPU-Sim PTX: Finding dominators for '_Z6KernelP4NodePiPbS2_S2_S1_i'...
GPGPU-Sim PTX: Finding immediate dominators for '_Z6KernelP4NodePiPbS2_S2_S1_i'...
GPGPU-Sim PTX: Finding postdominators for '_Z6KernelP4NodePiPbS2_S2_S1_i'...
GPGPU-Sim PTX: Finding immediate postdominators for '_Z6KernelP4NodePiPbS2_S2_S1_i'...
GPGPU-Sim PTX: pre-decoding instructions for '_Z6KernelP4NodePiPbS2_S2_S1_i'...
GPGPU-Sim PTX: reconvergence points for _Z6KernelP4NodePiPbS2_S2_S1_i...
GPGPU-Sim PTX:  1 (potential) branch divergence @  PC=0x060 (_1.ptx:42) @%p1 bra BB0_7;
GPGPU-Sim PTX:    immediate post dominator      @  PC=0x1e8 (_1.ptx:101) ret;
GPGPU-Sim PTX:  2 (potential) branch divergence @  PC=0x090 (_1.ptx:49) @%p2 bra BB0_7;
GPGPU-Sim PTX:    immediate post dominator      @  PC=0x1e8 (_1.ptx:101) ret;
GPGPU-Sim PTX:  3 (potential) branch divergence @  PC=0x0d8 (_1.ptx:59) @%p3 bra BB0_7;
GPGPU-Sim PTX:    immediate post dominator      @  PC=0x1e8 (_1.ptx:101) ret;
GPGPU-Sim PTX:  4 (potential) branch divergence @  PC=0x160 (_1.ptx:79) @%p4 bra BB0_6;
GPGPU-Sim PTX:    immediate post dominator      @  PC=0x1b8 (_1.ptx:93) mov.u32 %r24, %r25;
GPGPU-Sim PTX:  5 (potential) branch divergence @  PC=0x1e0 (_1.ptx:98) @%p5 bra BB0_4;
GPGPU-Sim PTX:    immediate post dominator      @  PC=0x1e8 (_1.ptx:101) ret;
GPGPU-Sim PTX: ... end of reconvergence points for _Z6KernelP4NodePiPbS2_S2_S1_i
GPGPU-Sim PTX: ... done pre-decoding instructions for '_Z6KernelP4NodePiPbS2_S2_S1_i'.
GPGPU-Sim PTX: instruction assembly for function '_Z7Kernel2PbS_S_S_i'...   done.
GPGPU-Sim PTX: finding reconvergence points for '_Z7Kernel2PbS_S_S_i'...
GPGPU-Sim PTX: Finding dominators for '_Z7Kernel2PbS_S_S_i'...
GPGPU-Sim PTX: Finding immediate dominators for '_Z7Kernel2PbS_S_S_i'...
GPGPU-Sim PTX: Finding postdominators for '_Z7Kernel2PbS_S_S_i'...
GPGPU-Sim PTX: Finding immediate postdominators for '_Z7Kernel2PbS_S_S_i'...
GPGPU-Sim PTX: pre-decoding instructions for '_Z7Kernel2PbS_S_S_i'...
GPGPU-Sim PTX: reconvergence points for _Z7Kernel2PbS_S_S_i...
GPGPU-Sim PTX:  1 (potential) branch divergence @  PC=0x240 (_1.ptx:129) @%p1 bra BB1_3;
GPGPU-Sim PTX:    immediate post dominator      @  PC=0x2d0 (_1.ptx:151) ret;
GPGPU-Sim PTX:  2 (potential) branch divergence @  PC=0x270 (_1.ptx:136) @%p2 bra BB1_3;
GPGPU-Sim PTX:    immediate post dominator      @  PC=0x2d0 (_1.ptx:151) ret;
GPGPU-Sim PTX: ... end of reconvergence points for _Z7Kernel2PbS_S_S_i
GPGPU-Sim PTX: ... done pre-decoding instructions for '_Z7Kernel2PbS_S_S_i'.
GPGPU-Sim PTX: finished parsing EMBEDDED .ptx file _1.ptx
Adding _cuobjdump_1.ptx with cubin handle 1
GPGPU-Sim PTX: extracting embedded .ptx to temporary file "_ptx_mGYdxi"
Running: cat _ptx_mGYdxi | sed 's/.version 1.5/.version 1.4/' | sed 's/, texmode_independent//' | sed 's/\(\.extern \.const\[1\] .b8 \w\+\)\[\]/\1\[1\]/' | sed 's/const\[.\]/const\[0\]/g' > _ptx2_luFbrQ
GPGPU-Sim PTX: generating ptxinfo using "$CUDA_INSTALL_PATH/bin/ptxas --gpu-name=sm_20 -v _ptx2_luFbrQ --output-file  /dev/null 2> _ptx_mGYdxiinfo"
GPGPU-Sim PTX: Kernel '_Z7Kernel2PbS_S_S_i' : regs=12, lmem=0, smem=0, cmem=68
GPGPU-Sim PTX: Kernel '_Z6KernelP4NodePiPbS2_S2_S1_i' : regs=15, lmem=0, smem=0, cmem=84
GPGPU-Sim PTX: removing ptxinfo using "rm -f _ptx_mGYdxi _ptx2_luFbrQ _ptx_mGYdxiinfo"
GPGPU-Sim PTX: loading globals with explicit initializers... 
GPGPU-Sim PTX: finished loading globals (0 bytes total).
GPGPU-Sim PTX: loading constants with explicit initializers...  done.
GPGPU-Sim PTX: __cudaRegisterFunction _Z6KernelP4NodePiPbS2_S2_S1_i : hostFun 0x0x401519, fat_cubin_handle = 1
Reading File
Read File
Copied Everything to GPU memory
Start traversing the tree

GPGPU-Sim PTX: cudaLaunch for 0x0x401519 (mode=performance simulation) on stream 0
GPGPU-Sim PTX: pushing kernel '_Z6KernelP4NodePiPbS2_S2_S1_i' to stream 0, gridDim= (128,1,1) blockDim = (512,1,1) 
GPGPU-Sim uArch: Shader 1 bind to kernel 1 '_Z6KernelP4NodePiPbS2_S2_S1_i'
GPGPU-Sim uArch: CTA/core = 4, limited by: threads
GPGPU-Sim uArch: Shader 2 bind to kernel 1 '_Z6KernelP4NodePiPbS2_S2_S1_i'
GPGPU-Sim uArch: Shader 3 bind to kernel 1 '_Z6KernelP4NodePiPbS2_S2_S1_i'
GPGPU-Sim uArch: Shader 4 bind to kernel 1 '_Z6KernelP4NodePiPbS2_S2_S1_i'
GPGPU-Sim uArch: Shader 5 bind to kernel 1 '_Z6KernelP4NodePiPbS2_S2_S1_i'
GPGPU-Sim uArch: Shader 6 bind to kernel 1 '_Z6KernelP4NodePiPbS2_S2_S1_i'
GPGPU-Sim uArch: Shader 7 bind to kernel 1 '_Z6KernelP4NodePiPbS2_S2_S1_i'
GPGPU-Sim uArch: Shader 8 bind to kernel 1 '_Z6KernelP4NodePiPbS2_S2_S1_i'
GPGPU-Sim uArch: Shader 9 bind to kernel 1 '_Z6KernelP4NodePiPbS2_S2_S1_i'
GPGPU-Sim uArch: Shader 10 bind to kernel 1 '_Z6KernelP4NodePiPbS2_S2_S1_i'
GPGPU-Sim uArch: Shader 11 bind to kernel 1 '_Z6KernelP4NodePiPbS2_S2_S1_i'
GPGPU-Sim uArch: Shader 12 bind to kernel 1 '_Z6KernelP4NodePiPbS2_S2_S1_i'
GPGPU-Sim uArch: Shader 13 bind to kernel 1 '_Z6KernelP4NodePiPbS2_S2_S1_i'
GPGPU-Sim uArch: Shader 14 bind to kernel 1 '_Z6KernelP4NodePiPbS2_S2_S1_i'
GPGPU-Sim uArch: Shader 15 bind to kernel 1 '_Z6KernelP4NodePiPbS2_S2_S1_i'
GPGPU-Sim uArch: Shader 16 bind to kernel 1 '_Z6KernelP4NodePiPbS2_S2_S1_i'
GPGPU-Sim uArch: Shader 17 bind to kernel 1 '_Z6KernelP4NodePiPbS2_S2_S1_i'
GPGPU-Sim uArch: Shader 18 bind to kernel 1 '_Z6KernelP4NodePiPbS2_S2_S1_i'
GPGPU-Sim uArch: Shader 19 bind to kernel 1 '_Z6KernelP4NodePiPbS2_S2_S1_i'
GPGPU-Sim uArch: Shader 20 bind to kernel 1 '_Z6KernelP4NodePiPbS2_S2_S1_i'
GPGPU-Sim uArch: Shader 21 bind to kernel 1 '_Z6KernelP4NodePiPbS2_S2_S1_i'
GPGPU-Sim uArch: Shader 22 bind to kernel 1 '_Z6KernelP4NodePiPbS2_S2_S1_i'
GPGPU-Sim uArch: Shader 23 bind to kernel 1 '_Z6KernelP4NodePiPbS2_S2_S1_i'
GPGPU-Sim uArch: Shader 24 bind to kernel 1 '_Z6KernelP4NodePiPbS2_S2_S1_i'
GPGPU-Sim uArch: Shader 25 bind to kernel 1 '_Z6KernelP4NodePiPbS2_S2_S1_i'
GPGPU-Sim uArch: Shader 26 bind to kernel 1 '_Z6KernelP4NodePiPbS2_S2_S1_i'
GPGPU-Sim uArch: Shader 27 bind to kernel 1 '_Z6KernelP4NodePiPbS2_S2_S1_i'
GPGPU-Sim uArch: Shader 0 bind to kernel 1 '_Z6KernelP4NodePiPbS2_S2_S1_i'
Destroy streams for kernel 1: size 0
kernel_name = _Z6KernelP4NodePiPbS2_S2_S1_i 
kernel_launch_uid = 1 
gpu_sim_cycle = 92832
gpu_sim_insn = 1245376
gpu_ipc =      13.4154
gpu_tot_sim_cycle = 317518
gpu_tot_sim_insn = 1245376
gpu_tot_ipc =       3.9222
gpu_tot_issued_cta = 128
max_total_param_size = 0
gpu_stall_dramfull = 0
gpu_stall_icnt2sh    = 2495
partiton_reqs_in_parallel = 2042304
partiton_reqs_in_parallel_total    = 0
partiton_level_parallism =      22.0000
partiton_level_parallism_total  =       6.4321
partiton_reqs_in_parallel_util = 2042304
partiton_reqs_in_parallel_util_total    = 0
gpu_sim_cycle_parition_util = 92832
gpu_tot_sim_cycle_parition_util    = 0
partiton_level_parallism_util =      22.0000
partiton_level_parallism_util_total  =      22.0000
partiton_replys_in_parallel = 2220
partiton_replys_in_parallel_total    = 0
L2_BW  =       2.2667 GB/Sec
L2_BW_total  =       0.6627 GB/Sec
gpu_total_sim_rate=31134

========= Core cache stats =========
L1I_cache:
	L1I_total_cache_accesses = 22632
	L1I_total_cache_misses = 2778
	L1I_total_cache_miss_rate = 0.1227
	L1I_total_cache_pending_hits = 0
	L1I_total_cache_reservation_fails = 6846
L1D_cache:
	L1D_cache_core[0]: Access = 0, Miss = 0, Miss_rate = -nan, Pending_hits = 0, Reservation_fails = 0
	L1D_cache_core[1]: Access = 0, Miss = 0, Miss_rate = -nan, Pending_hits = 0, Reservation_fails = 0
	L1D_cache_core[2]: Access = 0, Miss = 0, Miss_rate = -nan, Pending_hits = 0, Reservation_fails = 0
	L1D_cache_core[3]: Access = 0, Miss = 0, Miss_rate = -nan, Pending_hits = 0, Reservation_fails = 0
	L1D_cache_core[4]: Access = 0, Miss = 0, Miss_rate = -nan, Pending_hits = 0, Reservation_fails = 0
	L1D_cache_core[5]: Access = 0, Miss = 0, Miss_rate = -nan, Pending_hits = 0, Reservation_fails = 0
	L1D_cache_core[6]: Access = 0, Miss = 0, Miss_rate = -nan, Pending_hits = 0, Reservation_fails = 0
	L1D_cache_core[7]: Access = 0, Miss = 0, Miss_rate = -nan, Pending_hits = 0, Reservation_fails = 0
	L1D_cache_core[8]: Access = 0, Miss = 0, Miss_rate = -nan, Pending_hits = 0, Reservation_fails = 0
	L1D_cache_core[9]: Access = 0, Miss = 0, Miss_rate = -nan, Pending_hits = 0, Reservation_fails = 0
	L1D_cache_core[10]: Access = 0, Miss = 0, Miss_rate = -nan, Pending_hits = 0, Reservation_fails = 0
	L1D_cache_core[11]: Access = 0, Miss = 0, Miss_rate = -nan, Pending_hits = 0, Reservation_fails = 0
	L1D_cache_core[12]: Access = 0, Miss = 0, Miss_rate = -nan, Pending_hits = 0, Reservation_fails = 0
	L1D_cache_core[13]: Access = 0, Miss = 0, Miss_rate = -nan, Pending_hits = 0, Reservation_fails = 0
	L1D_cache_core[14]: Access = 0, Miss = 0, Miss_rate = -nan, Pending_hits = 0, Reservation_fails = 0
	L1D_cache_core[15]: Access = 0, Miss = 0, Miss_rate = -nan, Pending_hits = 0, Reservation_fails = 0
	L1D_cache_core[16]: Access = 0, Miss = 0, Miss_rate = -nan, Pending_hits = 0, Reservation_fails = 0
	L1D_cache_core[17]: Access = 0, Miss = 0, Miss_rate = -nan, Pending_hits = 0, Reservation_fails = 0
	L1D_cache_core[18]: Access = 0, Miss = 0, Miss_rate = -nan, Pending_hits = 0, Reservation_fails = 0
	L1D_cache_core[19]: Access = 0, Miss = 0, Miss_rate = -nan, Pending_hits = 0, Reservation_fails = 0
	L1D_cache_core[20]: Access = 0, Miss = 0, Miss_rate = -nan, Pending_hits = 0, Reservation_fails = 0
	L1D_cache_core[21]: Access = 0, Miss = 0, Miss_rate = -nan, Pending_hits = 0, Reservation_fails = 0
	L1D_cache_core[22]: Access = 0, Miss = 0, Miss_rate = -nan, Pending_hits = 0, Reservation_fails = 0
	L1D_cache_core[23]: Access = 0, Miss = 0, Miss_rate = -nan, Pending_hits = 0, Reservation_fails = 0
	L1D_cache_core[24]: Access = 0, Miss = 0, Miss_rate = -nan, Pending_hits = 0, Reservation_fails = 0
	L1D_cache_core[25]: Access = 0, Miss = 0, Miss_rate = -nan, Pending_hits = 0, Reservation_fails = 0
	L1D_cache_core[26]: Access = 0, Miss = 0, Miss_rate = -nan, Pending_hits = 0, Reservation_fails = 0
	L1D_cache_core[27]: Access = 0, Miss = 0, Miss_rate = -nan, Pending_hits = 0, Reservation_fails = 0
	L1D_total_cache_accesses = 0
	L1D_total_cache_misses = 0
	L1D_total_cache_pending_hits = 0
	L1D_total_cache_reservation_fails = 0
	L1D_cache_data_port_util = 0.000
	L1D_cache_fill_port_util = 0.000
L1C_cache:
	L1C_total_cache_accesses = 14336
	L1C_total_cache_misses = 1792
	L1C_total_cache_miss_rate = 0.1250
	L1C_total_cache_pending_hits = 0
	L1C_total_cache_reservation_fails = 4886
L1T_cache:
	L1T_total_cache_accesses = 0
	L1T_total_cache_misses = 0
	L1T_total_cache_pending_hits = 0
	L1T_total_cache_reservation_fails = 0

Total_core_cache_stats:
	Total_core_cache_stats_breakdown[GLOBAL_ACC_R][HIT] = 0
	Total_core_cache_stats_breakdown[GLOBAL_ACC_R][HIT_RESERVED] = 0
	Total_core_cache_stats_breakdown[GLOBAL_ACC_R][MISS] = 0
	Total_core_cache_stats_breakdown[GLOBAL_ACC_R][RESERVATION_FAIL] = 0
	Total_core_cache_stats_breakdown[LOCAL_ACC_R][HIT] = 0
	Total_core_cache_stats_breakdown[LOCAL_ACC_R][HIT_RESERVED] = 0
	Total_core_cache_stats_breakdown[LOCAL_ACC_R][MISS] = 0
	Total_core_cache_stats_breakdown[LOCAL_ACC_R][RESERVATION_FAIL] = 0
	Total_core_cache_stats_breakdown[CONST_ACC_R][HIT] = 12544
	Total_core_cache_stats_breakdown[CONST_ACC_R][HIT_RESERVED] = 0
	Total_core_cache_stats_breakdown[CONST_ACC_R][MISS] = 1792
	Total_core_cache_stats_breakdown[CONST_ACC_R][RESERVATION_FAIL] = 4886
	Total_core_cache_stats_breakdown[TEXTURE_ACC_R][HIT] = 0
	Total_core_cache_stats_breakdown[TEXTURE_ACC_R][HIT_RESERVED] = 0
	Total_core_cache_stats_breakdown[TEXTURE_ACC_R][MISS] = 0
	Total_core_cache_stats_breakdown[TEXTURE_ACC_R][RESERVATION_FAIL] = 0
	Total_core_cache_stats_breakdown[GLOBAL_ACC_W][HIT] = 0
	Total_core_cache_stats_breakdown[GLOBAL_ACC_W][HIT_RESERVED] = 0
	Total_core_cache_stats_breakdown[GLOBAL_ACC_W][MISS] = 0
	Total_core_cache_stats_breakdown[GLOBAL_ACC_W][RESERVATION_FAIL] = 0
	Total_core_cache_stats_breakdown[LOCAL_ACC_W][HIT] = 0
	Total_core_cache_stats_breakdown[LOCAL_ACC_W][HIT_RESERVED] = 0
	Total_core_cache_stats_breakdown[LOCAL_ACC_W][MISS] = 0
	Total_core_cache_stats_breakdown[LOCAL_ACC_W][RESERVATION_FAIL] = 0
	Total_core_cache_stats_breakdown[L1_WRBK_ACC][HIT] = 0
	Total_core_cache_stats_breakdown[L1_WRBK_ACC][HIT_RESERVED] = 0
	Total_core_cache_stats_breakdown[L1_WRBK_ACC][MISS] = 0
	Total_core_cache_stats_breakdown[L1_WRBK_ACC][RESERVATION_FAIL] = 0
	Total_core_cache_stats_breakdown[L2_WRBK_ACC][HIT] = 0
	Total_core_cache_stats_breakdown[L2_WRBK_ACC][HIT_RESERVED] = 0
	Total_core_cache_stats_breakdown[L2_WRBK_ACC][MISS] = 0
	Total_core_cache_stats_breakdown[L2_WRBK_ACC][RESERVATION_FAIL] = 0
	Total_core_cache_stats_breakdown[INST_ACC_R][HIT] = 19854
	Total_core_cache_stats_breakdown[INST_ACC_R][HIT_RESERVED] = 0
	Total_core_cache_stats_breakdown[INST_ACC_R][MISS] = 2778
	Total_core_cache_stats_breakdown[INST_ACC_R][RESERVATION_FAIL] = 6846
	Total_core_cache_stats_breakdown[L1_WR_ALLOC_R][HIT] = 0
	Total_core_cache_stats_breakdown[L1_WR_ALLOC_R][HIT_RESERVED] = 0
	Total_core_cache_stats_breakdown[L1_WR_ALLOC_R][MISS] = 0
	Total_core_cache_stats_breakdown[L1_WR_ALLOC_R][RESERVATION_FAIL] = 0
	Total_core_cache_stats_breakdown[L2_WR_ALLOC_R][HIT] = 0
	Total_core_cache_stats_breakdown[L2_WR_ALLOC_R][HIT_RESERVED] = 0
	Total_core_cache_stats_breakdown[L2_WR_ALLOC_R][MISS] = 0
	Total_core_cache_stats_breakdown[L2_WR_ALLOC_R][RESERVATION_FAIL] = 0
	Total_core_cache_stats_breakdown[CONST_ACC_R][TOTAL_ACCESS] = 14336
	Total_core_cache_stats_breakdown[INST_ACC_R][TOTAL_ACCESS] = 22632
Shader 0 warp_id issue ditsribution:
warp_id:
0, 1, 2, 3, 4, 5, 6, 7, 8, 9, 10, 11, 12, 13, 14, 15, 16, 17, 18, 19, 20, 21, 22, 23, 24, 25, 26, 27, 28, 29, 30, 31, 32, 33, 34, 35, 36, 37, 38, 39, 40, 41, 42, 43, 44, 45, 46, 47, 48, 49, 50, 51, 52, 53, 54, 55, 56, 57, 58, 59, 60, 61, 62, 63, 
distro:
23, 23, 22, 23, 22, 23, 22, 23, 23, 23, 23, 23, 23, 23, 23, 23, 23, 23, 23, 23, 23, 23, 23, 23, 23, 23, 23, 23, 23, 23, 23, 23, 23, 23, 23, 23, 23, 23, 23, 23, 23, 23, 23, 23, 23, 23, 23, 23, 23, 23, 23, 23, 23, 23, 23, 23, 23, 23, 23, 23, 23, 23, 23, 23, 
gpgpu_n_tot_thrd_icount = 1317216
gpgpu_n_tot_w_icount = 41163
gpgpu_n_stall_shd_mem = 5407
gpgpu_n_mem_read_local = 0
gpgpu_n_mem_write_local = 0
gpgpu_n_mem_read_global = 2090
gpgpu_n_mem_write_global = 17
gpgpu_n_mem_texture = 0
gpgpu_n_mem_const = 28
gpgpu_n_load_insn  = 65578
gpgpu_n_store_insn = 17
gpgpu_n_shmem_insn = 0
gpgpu_n_tex_insn = 0
gpgpu_n_const_mem_insn = 0
gpgpu_n_param_mem_insn = 458752
gpgpu_n_shmem_bkconflict = 0
gpgpu_n_cache_bkconflict = 0
gpgpu_n_intrawarp_mshr_merge = 0
gpgpu_n_cmem_portconflict = 4886
gpgpu_stall_shd_mem[c_mem][bk_conf] = 4886
gpgpu_stall_shd_mem[c_mem][mshr_rc] = 0
gpgpu_stall_shd_mem[c_mem][icnt_rc] = 0
gpgpu_stall_shd_mem[c_mem][data_port_stall] = 0
gpgpu_stall_shd_mem[t_mem][mshr_rc] = 0
gpgpu_stall_shd_mem[t_mem][icnt_rc] = 0
gpgpu_stall_shd_mem[t_mem][data_port_stall] = 0
gpgpu_stall_shd_mem[s_mem][bk_conf] = 0
gpgpu_stall_shd_mem[gl_mem][bk_conf] = 0
gpgpu_stall_shd_mem[gl_mem][coal_stall] = 0
gpgpu_stall_shd_mem[gl_mem][data_port_stall] = 0
gpgpu_stall_shd_mem[g_mem_ld][mshr_rc] = 0
gpgpu_stall_shd_mem[g_mem_ld][icnt_rc] = 521
gpgpu_stall_shd_mem[g_mem_ld][wb_icnt_rc] = 0
gpgpu_stall_shd_mem[g_mem_ld][wb_rsrv_fail] = 0
gpgpu_stall_shd_mem[g_mem_st][mshr_rc] = 0
gpgpu_stall_shd_mem[g_mem_st][icnt_rc] = 0
gpgpu_stall_shd_mem[g_mem_st][wb_icnt_rc] = 0
gpgpu_stall_shd_mem[g_mem_st][wb_rsrv_fail] = 0
gpgpu_stall_shd_mem[l_mem_ld][mshr_rc] = 0
gpgpu_stall_shd_mem[l_mem_ld][icnt_rc] = 0
gpgpu_stall_shd_mem[l_mem_ld][wb_icnt_rc] = 0
gpgpu_stall_shd_mem[l_mem_ld][wb_rsrv_fail] = 0
gpgpu_stall_shd_mem[l_mem_st][mshr_rc] = 0
gpgpu_stall_shd_mem[l_mem_st][icnt_rc] = 0
gpgpu_stall_shd_mem[l_mem_ld][wb_icnt_rc] = 0
gpgpu_stall_shd_mem[l_mem_ld][wb_rsrv_fail] = 0
gpu_reg_bank_conflict_stalls = 0
Warp Occupancy Distribution:
Stall:16029	W0_Idle:139754	W0_Scoreboard:623694	W1:203	W2:0	W3:0	W4:0	W5:0	W6:0	W7:0	W8:0	W9:0	W10:0	W11:0	W12:0	W13:0	W14:0	W15:0	W16:0	W17:0	W18:0	W19:0	W20:0	W21:0	W22:0	W23:0	W24:0	W25:0	W26:0	W27:0	W28:0	W29:0	W30:0	W31:0	W32:40960
traffic_breakdown_coretomem[CONST_ACC_R] = 224 {8:28,}
traffic_breakdown_coretomem[GLOBAL_ACC_R] = 16720 {8:2090,}
traffic_breakdown_coretomem[GLOBAL_ACC_W] = 680 {40:17,}
traffic_breakdown_coretomem[INST_ACC_R] = 680 {8:85,}
traffic_breakdown_memtocore[CONST_ACC_R] = 2016 {72:28,}
traffic_breakdown_memtocore[GLOBAL_ACC_R] = 83600 {40:2090,}
traffic_breakdown_memtocore[GLOBAL_ACC_W] = 136 {8:17,}
traffic_breakdown_memtocore[INST_ACC_R] = 11560 {136:85,}
maxmrqlatency = 74 
maxdqlatency = 0 
maxmflatency = 41720 
averagemflatency = 8183 
max_icnt2mem_latency = 41485 
max_icnt2sh_latency = 317517 
mrq_lat_table:130 	32 	41 	66 	131 	143 	17 	0 	0 	0 	0 	0 	0 	0 	0 	0 	0 	0 	0 	0 	0 	0 	0 	0 	0 	0 	0 	0 	0 	0 	0 	0 	
dq_lat_table:0 	0 	0 	0 	0 	0 	0 	0 	0 	0 	0 	0 	0 	0 	0 	0 	0 	0 	0 	0 	0 	0 	0 	0 	0 	0 	0 	0 	0 	0 	0 	0 	
mf_lat_table:0 	0 	0 	0 	0 	0 	0 	62 	5 	0 	0 	512 	257 	1292 	4 	3 	0 	0 	0 	0 	0 	0 	0 	0 	0 	0 	0 	0 	0 	0 	0 	0 	
icnt2mem_lat_table:0 	0 	100 	25 	22 	0 	5 	0 	0 	0 	0 	512 	258 	1291 	4 	3 	0 	0 	0 	0 	0 	0 	0 	0 	
icnt2sh_lat_table:0 	0 	524 	1015 	579 	0 	0 	0 	0 	0 	0 	0 	0 	0 	0 	0 	0 	1 	16 	0 	0 	0 	0 	0 	
mf_lat_pw_table:0 	0 	0 	0 	0 	0 	0 	13 	0 	0 	0 	2 	2 	6 	1 	1 	0 	0 	0 	0 	0 	0 	0 	0 	0 	0 	0 	0 	0 	0 	0 	0 	
maximum concurrent accesses to same row:
dram[0]:         1         0         0         0         0         0         0         0         0         0         0         0         0         0         0         0 
dram[1]:         0         0         0         0         0         0         0         0         0         0         0         0         0         0         0         0 
dram[2]:         0         0         0         0         0         0         0         0         0         0         0         0         0         0         0         0 
dram[3]:         0         0         0         0         0         0         1         0         0         0         0         0         0         0         0         0 
dram[4]:         0         0         0         0         0         0         0         0         0         0         0         0         0         0         1        14 
dram[5]:         0         0         0         0         0         0         0         0         0         0         0         0         0         0        15         6 
dram[6]:         0         0         0         0         0         0         0         0         0         0         0         0         0         0         0         0 
dram[7]:         0         0         0         0         0         0         0         0         0         0         0         0         0         0         0         0 
dram[8]:         0         0         0         0         0         0         0         0         0         0         0         0         0         0         0         0 
dram[9]:         0         0         0         0         0         0         0         0         0         0         0         0         0         0         0         0 
dram[10]:         0         0         0         0         0         0         0         0         0         0         0         0         0         0        15         0 
maximum service time to same row:
dram[0]:     11475     11479         0         0     46035         0         0         0         0         0         0         0         0         0      4580      4584 
dram[1]:     11479     11486     64572         0     54275         0         0         0         0         0         0     92819         0         0      4580      4584 
dram[2]:     11475     11479         0         0         0         0         0         0         0         0         0         0         0         0      4580      4584 
dram[3]:     11479     11486         0     64579         0         0     14050     54277         0         0         0         0         0         0      4580      4584 
dram[4]:     11476     11480     64570         0     51674         0         0         0         0         0         0         0         0         0      4352     68228 
dram[5]:     11486     11491     64576     64575         0         0     84579         0         0         0         0         0         0         0      9733      6609 
dram[6]:     11471     11474         0         0         0         0         0     46748         0         0         0         0         0         0      4580      4582 
dram[7]:     11477     11484     64573         0     50172         0         0         0     84581         0         0         0         0         0      4580      4581 
dram[8]:     11480     11482         0         0         0     47604     48460         0         0     84582         0         0         0         0      4580      4581 
dram[9]:     11484     11486         0         0     36565         0         0         0         0         0         0         0         0         0      4580      4581 
dram[10]:     11479     11480         0         0     49316         0         0         0         0         0         0         0         0         0     68230      4584 
average row accesses per activate:
dram[0]: 10.000000  9.000000      -nan      -nan  1.000000      -nan      -nan      -nan      -nan      -nan      -nan      -nan      -nan      -nan 14.000000 14.000000 
dram[1]:  9.000000  9.000000  2.000000      -nan  2.000000      -nan      -nan      -nan      -nan      -nan      -nan  2.000000      -nan      -nan 14.000000 14.000000 
dram[2]:  9.000000  9.000000      -nan      -nan      -nan      -nan      -nan      -nan      -nan      -nan      -nan      -nan      -nan      -nan 14.000000 14.000000 
dram[3]:  9.000000  9.000000      -nan  2.000000      -nan      -nan  1.000000  2.000000      -nan      -nan      -nan      -nan      -nan      -nan 14.000000 14.000000 
dram[4]:  9.000000  9.000000  2.000000      -nan  1.000000      -nan      -nan      -nan      -nan      -nan      -nan      -nan      -nan      -nan  7.500000  5.666667 
dram[5]:  9.000000 11.000000  2.000000  2.000000      -nan      -nan  2.000000      -nan      -nan      -nan      -nan      -nan      -nan      -nan  8.000000  5.333333 
dram[6]: 11.000000  9.000000      -nan      -nan      -nan      -nan      -nan  1.000000      -nan      -nan      -nan      -nan      -nan      -nan 15.000000 15.000000 
dram[7]:  9.000000  9.000000  2.000000      -nan  1.000000      -nan      -nan      -nan  2.000000      -nan      -nan      -nan      -nan      -nan 15.000000 15.000000 
dram[8]:  8.000000  8.000000      -nan      -nan      -nan  2.000000  1.000000      -nan      -nan  2.000000      -nan      -nan      -nan      -nan 15.000000 15.000000 
dram[9]:  8.000000  8.000000      -nan      -nan  1.000000      -nan      -nan      -nan      -nan      -nan      -nan      -nan      -nan      -nan 15.000000 15.000000 
dram[10]:  8.000000  8.000000      -nan      -nan  1.000000      -nan      -nan      -nan      -nan      -nan      -nan      -nan      -nan      -nan  8.500000 15.000000 
average row locality = 560/73 = 7.671233
number of total memory accesses made:
dram[0]:         0         0         0         0         0         0         0         0         0         0         0         0         0         0         0         0 
dram[1]:         0         0         0         0         0         0         0         0         0         0         0         0         0         0         0         0 
dram[2]:         0         0         0         0         0         0         0         0         0         0         0         0         0         0         0         0 
dram[3]:         0         0         0         0         0         0         0         0         0         0         0         0         0         0         0         0 
dram[4]:         0         0         0         0         0         0         0         0         0         0         0         0         0         0         0         0 
dram[5]:         0         0         0         0         0         0         0         0         0         0         0         0         0         0         0         0 
dram[6]:         0         0         0         0         0         0         0         0         0         0         0         0         0         0         0         0 
dram[7]:         0         0         0         0         0         0         0         0         0         0         0         0         0         0         0         0 
dram[8]:         0         0         0         0         0         0         0         0         0         0         0         0         0         0         0         0 
dram[9]:         0         0         0         0         0         0         0         0         0         0         0         0         0         0         0         0 
dram[10]:         0         0         0         0         0         0         0         0         0         0         0         0         0         0         0         0 
total accesses: 0
min_bank_accesses = 0!
min_chip_accesses = 0!
number of total read accesses:
dram[0]:        10         9         0         0         1         0         0         0         0         0         0         0         0         0        14        14 
dram[1]:         9         9         1         0         1         0         0         0         0         0         0         1         0         0        14        14 
dram[2]:         9         9         0         0         0         0         0         0         0         0         0         0         0         0        14        14 
dram[3]:         9         9         0         1         0         0         2         1         0         0         0         0         0         0        14        14 
dram[4]:         9         9         1         0         1         0         0         0         0         0         0         0         0         0        15        16 
dram[5]:         9        10         1         1         0         0         1         0         0         0         0         0         0         0        16        16 
dram[6]:        10         9         0         0         0         0         0         1         0         0         0         0         0         0        15        15 
dram[7]:         9         9         1         0         1         0         0         0         1         0         0         0         0         0        15        15 
dram[8]:         8         8         0         0         0         2         1         0         0         1         0         0         0         0        15        15 
dram[9]:         8         8         0         0         1         0         0         0         0         0         0         0         0         0        15        15 
dram[10]:         8         8         0         0         1         0         0         0         0         0         0         0         0         0        16        15 
total reads: 544
min_bank_accesses = 0!
chip skew: 54/46 = 1.17
number of total write accesses:
dram[0]:         0         0         0         0         0         0         0         0         0         0         0         0         0         0         0         0 
dram[1]:         0         0         1         0         1         0         0         0         0         0         0         1         0         0         0         0 
dram[2]:         0         0         0         0         0         0         0         0         0         0         0         0         0         0         0         0 
dram[3]:         0         0         0         1         0         0         0         1         0         0         0         0         0         0         0         0 
dram[4]:         0         0         1         0         0         0         0         0         0         0         0         0         0         0         0         1 
dram[5]:         0         1         1         1         0         0         1         0         0         0         0         0         0         0         0         0 
dram[6]:         1         0         0         0         0         0         0         0         0         0         0         0         0         0         0         0 
dram[7]:         0         0         1         0         0         0         0         0         1         0         0         0         0         0         0         0 
dram[8]:         0         0         0         0         0         0         0         0         0         1         0         0         0         0         0         0 
dram[9]:         0         0         0         0         0         0         0         0         0         0         0         0         0         0         0         0 
dram[10]:         0         0         0         0         0         0         0         0         0         0         0         0         0         0         1         0 
total reads: 16
min_bank_accesses = 0!
min_chip_accesses = 0!
average mf latency per bank:
dram[0]:      33845     36902    none      none       10367    none      none      none      none      none      none      none      none      none       30590     30651
dram[1]:      36809     36915      6352    none        3246    none      none      none      none      none      none       20860    none      none       30584     30666
dram[2]:      36807     36861    none      none      none      none      none      none      none      none      none      none      none      none       30573     30641
dram[3]:      36823     36883    none        8818    none      none       11481      4103    none      none      none      none      none      none       32531     32622
dram[4]:      36849     36932      7102    none         250    none      none      none      none      none      none      none      none      none       30385     28402
dram[5]:      36790     31046      7963      6731    none      none       16363    none      none      none      none      none      none      none       29455     29551
dram[6]:      31218     36873    none      none      none      none      none         352    none      none      none      none      none      none       31399     31490
dram[7]:      36901     36945      7532    none         352    none      none      none       17115    none      none      none      none      none       31371     31466
dram[8]:      38225     38221    none      none      none         298       352    none      none       17543    none      none      none      none       31373     31471
dram[9]:      36142     36185    none      none       11647    none      none      none      none      none      none      none      none      none       31370     31460
dram[10]:      36152     36155    none      none         352    none      none      none      none      none      none      none      none      none       29107     31457
maximum mf latency per bank:
dram[0]:      10635     10649         0         0      9457         0         0         0         0         0         0         0         0         0     10631     10646
dram[1]:      10633     10652     12705         0      6492         0         0         0         0         0         0     41720         0         0     10632     10658
dram[2]:      10627     10641         0         0         0         0         0         0         0         0         0         0         0         0     10627     10642
dram[3]:      10638     10653         0     17637         0         0     10414      8206         0         0         0         0         0         0     10631     10661
dram[4]:      10665     10675     14205         0       250         0         0         0         0         0         0         0         0         0     10640     25891
dram[5]:      10691     10685     15926     13462         0         0     32726         0         0         0         0         0         0         0     10653     10688
dram[6]:      11618     10729         0         0         0         0         0       352         0         0         0         0         0         0     10650     10678
dram[7]:      10692     10718     15064         0       352         0         0         0     34230         0         0         0         0         0     10627     10663
dram[8]:      10655     10646         0         0         0       352       352         0         0     35087         0         0         0         0     10637     10676
dram[9]:      10639     10664         0         0     11647         0         0         0         0         0         0         0         0         0     10637     10664
dram[10]:      10646     10657         0         0       352         0         0         0         0         0         0         0         0         0     24177     10665
Memory Partition 0: 
Cache L2_bank_000:
MSHR contents

Cache L2_bank_001:
MSHR contents

In Dram Latency Queue (total = 0): 
DRAM[0]: 16 bks, busW=4 BL=8 CL=12, tRRD=2 tCCD=6, tRCD=12 tRAS=28 tRP=12 tRC=40
n_cmd=172374 n_nop=172175 n_act=6 n_pre=1 n_req=48 n_rd=192 n_write=0 bw_util=0.002228
n_activity=480 dram_eff=0.8
bk0: 40a 172211i bk1: 36a 172164i bk2: 0a 172373i bk3: 0a 172375i bk4: 4a 172355i bk5: 0a 172373i bk6: 0a 172373i bk7: 0a 172373i bk8: 0a 172373i bk9: 0a 172374i bk10: 0a 172374i bk11: 0a 172374i bk12: 0a 172375i bk13: 0a 172375i bk14: 56a 172246i bk15: 56a 172154i 
dram_util_bins: 0 0 0 0 0 0 0 0 0 0
dram_eff_bins: 0 0 0 0 0 0 0 0 0 0
mrqq: max=9 avg=0.0099725
Memory Partition 1: 
Cache L2_bank_002:
MSHR contents

Cache L2_bank_003:
MSHR contents
MSHR: tag=0x80519280, atomic=0 1 entries : 0x7f962ba7c3a0 :  mf: uid= 50823, sid01:w00, part=1, addr=0x805192a0, load , size=32, unknown  status = IN_PARTITION_DRAM (317517), 

In Dram Latency Queue (total = 0): 
DRAM[1]: 16 bks, busW=4 BL=8 CL=12, tRRD=2 tCCD=6, tRCD=12 tRAS=28 tRP=12 tRC=40
n_cmd=172374 n_nop=172169 n_act=7 n_pre=0 n_req=52 n_rd=195 n_write=3 bw_util=0.002297
n_activity=503 dram_eff=0.7873
bk0: 36a 172237i bk1: 36a 172178i bk2: 4a 172347i bk3: 0a 172372i bk4: 4a 172348i bk5: 0a 172373i bk6: 0a 172373i bk7: 0a 172374i bk8: 0a 172375i bk9: 0a 172375i bk10: 0a 172375i bk11: 3a 172351i bk12: 0a 172373i bk13: 0a 172374i bk14: 56a 172244i bk15: 56a 172151i 
dram_util_bins: 0 0 0 0 0 0 0 0 0 0
dram_eff_bins: 0 0 0 0 0 0 0 0 0 0
mrqq: max=9 avg=0.00985067
Memory Partition 2: 
Cache L2_bank_004:
MSHR contents

Cache L2_bank_005:
MSHR contents

In Dram Latency Queue (total = 0): 
DRAM[2]: 16 bks, busW=4 BL=8 CL=12, tRRD=2 tCCD=6, tRCD=12 tRAS=28 tRP=12 tRC=40
n_cmd=172374 n_nop=172186 n_act=4 n_pre=0 n_req=46 n_rd=184 n_write=0 bw_util=0.002135
n_activity=400 dram_eff=0.92
bk0: 36a 172222i bk1: 36a 172164i bk2: 0a 172372i bk3: 0a 172374i bk4: 0a 172374i bk5: 0a 172374i bk6: 0a 172374i bk7: 0a 172374i bk8: 0a 172374i bk9: 0a 172374i bk10: 0a 172374i bk11: 0a 172374i bk12: 0a 172374i bk13: 0a 172375i bk14: 56a 172246i bk15: 56a 172155i 
dram_util_bins: 0 0 0 0 0 0 0 0 0 0
dram_eff_bins: 0 0 0 0 0 0 0 0 0 0
mrqq: max=12 avg=0.0111618
Memory Partition 3: 
Cache L2_bank_006:
MSHR contents

Cache L2_bank_007:
MSHR contents

In Dram Latency Queue (total = 0): 
DRAM[3]: 16 bks, busW=4 BL=8 CL=12, tRRD=2 tCCD=6, tRCD=12 tRAS=28 tRP=12 tRC=40
n_cmd=172374 n_nop=172163 n_act=8 n_pre=1 n_req=52 n_rd=200 n_write=2 bw_util=0.002344
n_activity=572 dram_eff=0.7063
bk0: 36a 172214i bk1: 36a 172163i bk2: 0a 172374i bk3: 4a 172348i bk4: 0a 172374i bk5: 0a 172374i bk6: 8a 172323i bk7: 4a 172346i bk8: 0a 172372i bk9: 0a 172372i bk10: 0a 172374i bk11: 0a 172374i bk12: 0a 172374i bk13: 0a 172375i bk14: 56a 172246i bk15: 56a 172150i 
dram_util_bins: 0 0 0 0 0 0 0 0 0 0
dram_eff_bins: 0 0 0 0 0 0 0 0 0 0
mrqq: max=12 avg=0.013169
Memory Partition 4: 
Cache L2_bank_008:
MSHR contents

Cache L2_bank_009:
MSHR contents

In Dram Latency Queue (total = 0): 
DRAM[4]: 16 bks, busW=4 BL=8 CL=12, tRRD=2 tCCD=6, tRCD=12 tRAS=28 tRP=12 tRC=40
n_cmd=172374 n_nop=172156 n_act=9 n_pre=3 n_req=53 n_rd=204 n_write=2 bw_util=0.00239
n_activity=624 dram_eff=0.6603
bk0: 36a 172207i bk1: 36a 172152i bk2: 4a 172348i bk3: 0a 172373i bk4: 4a 172353i bk5: 0a 172372i bk6: 0a 172373i bk7: 0a 172373i bk8: 0a 172373i bk9: 0a 172373i bk10: 0a 172373i bk11: 0a 172375i bk12: 0a 172375i bk13: 0a 172377i bk14: 60a 172223i bk15: 64a 172080i 
dram_util_bins: 0 0 0 0 0 0 0 0 0 0
dram_eff_bins: 0 0 0 0 0 0 0 0 0 0
mrqq: max=12 avg=0.0127049
Memory Partition 5: 
Cache L2_bank_010:
MSHR contents

Cache L2_bank_011:
MSHR contents

In Dram Latency Queue (total = 0): 
DRAM[5]: 16 bks, busW=4 BL=8 CL=12, tRRD=2 tCCD=6, tRCD=12 tRAS=28 tRP=12 tRC=40
n_cmd=172374 n_nop=172141 n_act=10 n_pre=3 n_req=58 n_rd=216 n_write=4 bw_util=0.002553
n_activity=639 dram_eff=0.6886
bk0: 36a 172229i bk1: 40a 172153i bk2: 4a 172341i bk3: 4a 172332i bk4: 0a 172369i bk5: 0a 172372i bk6: 4a 172348i bk7: 0a 172372i bk8: 0a 172374i bk9: 0a 172375i bk10: 0a 172376i bk11: 0a 172377i bk12: 0a 172377i bk13: 0a 172379i bk14: 64a 172214i bk15: 64a 172106i 
dram_util_bins: 0 0 0 0 0 0 0 0 0 0
dram_eff_bins: 0 0 0 0 0 0 0 0 0 0
mrqq: max=11 avg=0.0112372
Memory Partition 6: 
Cache L2_bank_012:
MSHR contents

Cache L2_bank_013:
MSHR contents

In Dram Latency Queue (total = 0): 
DRAM[6]: 16 bks, busW=4 BL=8 CL=12, tRRD=2 tCCD=6, tRCD=12 tRAS=28 tRP=12 tRC=40
n_cmd=172374 n_nop=172168 n_act=5 n_pre=0 n_req=51 n_rd=200 n_write=1 bw_util=0.002332
n_activity=485 dram_eff=0.8289
bk0: 40a 172181i bk1: 36a 172140i bk2: 0a 172372i bk3: 0a 172374i bk4: 0a 172375i bk5: 0a 172375i bk6: 0a 172375i bk7: 4a 172355i bk8: 0a 172373i bk9: 0a 172373i bk10: 0a 172373i bk11: 0a 172373i bk12: 0a 172374i bk13: 0a 172375i bk14: 60a 172237i bk15: 60a 172133i 
dram_util_bins: 0 0 0 0 0 0 0 0 0 0
dram_eff_bins: 0 0 0 0 0 0 0 0 0 0
mrqq: max=11 avg=0.0115041
Memory Partition 7: 
Cache L2_bank_014:
MSHR contents

Cache L2_bank_015:
MSHR contents

In Dram Latency Queue (total = 0): 
DRAM[7]: 16 bks, busW=4 BL=8 CL=12, tRRD=2 tCCD=6, tRCD=12 tRAS=28 tRP=12 tRC=40
n_cmd=172374 n_nop=172161 n_act=7 n_pre=0 n_req=53 n_rd=204 n_write=2 bw_util=0.00239
n_activity=536 dram_eff=0.7687
bk0: 36a 172212i bk1: 36a 172161i bk2: 4a 172348i bk3: 0a 172373i bk4: 4a 172354i bk5: 0a 172373i bk6: 0a 172374i bk7: 0a 172374i bk8: 4a 172348i bk9: 0a 172372i bk10: 0a 172372i bk11: 0a 172373i bk12: 0a 172373i bk13: 0a 172375i bk14: 60a 172237i bk15: 60a 172134i 
dram_util_bins: 0 0 0 0 0 0 0 0 0 0
dram_eff_bins: 0 0 0 0 0 0 0 0 0 0
mrqq: max=12 avg=0.0132445
Memory Partition 8: 
Cache L2_bank_016:
MSHR contents

Cache L2_bank_017:
MSHR contents

In Dram Latency Queue (total = 0): 
DRAM[8]: 16 bks, busW=4 BL=8 CL=12, tRRD=2 tCCD=6, tRCD=12 tRAS=28 tRP=12 tRC=40
n_cmd=172374 n_nop=172166 n_act=7 n_pre=0 n_req=51 n_rd=200 n_write=1 bw_util=0.002332
n_activity=538 dram_eff=0.7472
bk0: 32a 172223i bk1: 32a 172171i bk2: 0a 172372i bk3: 0a 172374i bk4: 0a 172375i bk5: 8a 172348i bk6: 4a 172354i bk7: 0a 172373i bk8: 0a 172373i bk9: 4a 172349i bk10: 0a 172373i bk11: 0a 172374i bk12: 0a 172374i bk13: 0a 172375i bk14: 60a 172237i bk15: 60a 172132i 
dram_util_bins: 0 0 0 0 0 0 0 0 0 0
dram_eff_bins: 0 0 0 0 0 0 0 0 0 0
mrqq: max=11 avg=0.0112024
Memory Partition 9: 
Cache L2_bank_018:
MSHR contents

Cache L2_bank_019:
MSHR contents

In Dram Latency Queue (total = 0): 
DRAM[9]: 16 bks, busW=4 BL=8 CL=12, tRRD=2 tCCD=6, tRCD=12 tRAS=28 tRP=12 tRC=40
n_cmd=172374 n_nop=172181 n_act=5 n_pre=0 n_req=47 n_rd=188 n_write=0 bw_util=0.002181
n_activity=440 dram_eff=0.8545
bk0: 32a 172240i bk1: 32a 172178i bk2: 0a 172373i bk3: 0a 172374i bk4: 4a 172354i bk5: 0a 172373i bk6: 0a 172373i bk7: 0a 172373i bk8: 0a 172374i bk9: 0a 172374i bk10: 0a 172374i bk11: 0a 172374i bk12: 0a 172374i bk13: 0a 172376i bk14: 60a 172238i bk15: 60a 172132i 
dram_util_bins: 0 0 0 0 0 0 0 0 0 0
dram_eff_bins: 0 0 0 0 0 0 0 0 0 0
mrqq: max=9 avg=0.0103612
Memory Partition 10: 
Cache L2_bank_020:
MSHR contents

Cache L2_bank_021:
MSHR contents

In Dram Latency Queue (total = 0): 
DRAM[10]: 16 bks, busW=4 BL=8 CL=12, tRRD=2 tCCD=6, tRCD=12 tRAS=28 tRP=12 tRC=40
n_cmd=172374 n_nop=172174 n_act=6 n_pre=1 n_req=49 n_rd=192 n_write=1 bw_util=0.002239
n_activity=492 dram_eff=0.7846
bk0: 32a 172220i bk1: 32a 172168i bk2: 0a 172372i bk3: 0a 172373i bk4: 4a 172354i bk5: 0a 172372i bk6: 0a 172373i bk7: 0a 172373i bk8: 0a 172374i bk9: 0a 172375i bk10: 0a 172375i bk11: 0a 172375i bk12: 0a 172375i bk13: 0a 172376i bk14: 64a 172200i bk15: 60a 172134i 
dram_util_bins: 0 0 0 0 0 0 0 0 0 0
dram_eff_bins: 0 0 0 0 0 0 0 0 0 0
mrqq: max=9 avg=0.00913131

========= L2 cache stats =========
L2_cache_bank[0]: Access = 128, Miss = 25, Miss_rate = 0.195, Pending_hits = 96, Reservation_fails = 0
L2_cache_bank[1]: Access = 92, Miss = 23, Miss_rate = 0.250, Pending_hits = 69, Reservation_fails = 0
L2_cache_bank[2]: Access = 94, Miss = 25, Miss_rate = 0.266, Pending_hits = 69, Reservation_fails = 0
L2_cache_bank[3]: Access = 93, Miss = 24, Miss_rate = 0.258, Pending_hits = 69, Reservation_fails = 0
L2_cache_bank[4]: Access = 92, Miss = 23, Miss_rate = 0.250, Pending_hits = 69, Reservation_fails = 0
L2_cache_bank[5]: Access = 92, Miss = 23, Miss_rate = 0.250, Pending_hits = 69, Reservation_fails = 0
L2_cache_bank[6]: Access = 118, Miss = 25, Miss_rate = 0.212, Pending_hits = 69, Reservation_fails = 0
L2_cache_bank[7]: Access = 94, Miss = 25, Miss_rate = 0.266, Pending_hits = 69, Reservation_fails = 0
L2_cache_bank[8]: Access = 122, Miss = 26, Miss_rate = 0.213, Pending_hits = 96, Reservation_fails = 0
L2_cache_bank[9]: Access = 121, Miss = 25, Miss_rate = 0.207, Pending_hits = 96, Reservation_fails = 0
L2_cache_bank[10]: Access = 100, Miss = 27, Miss_rate = 0.270, Pending_hits = 72, Reservation_fails = 0
L2_cache_bank[11]: Access = 126, Miss = 27, Miss_rate = 0.214, Pending_hits = 99, Reservation_fails = 0
L2_cache_bank[12]: Access = 97, Miss = 25, Miss_rate = 0.258, Pending_hits = 72, Reservation_fails = 0
L2_cache_bank[13]: Access = 97, Miss = 25, Miss_rate = 0.258, Pending_hits = 72, Reservation_fails = 0
L2_cache_bank[14]: Access = 99, Miss = 27, Miss_rate = 0.273, Pending_hits = 72, Reservation_fails = 0
L2_cache_bank[15]: Access = 96, Miss = 24, Miss_rate = 0.250, Pending_hits = 72, Reservation_fails = 0
L2_cache_bank[16]: Access = 93, Miss = 24, Miss_rate = 0.258, Pending_hits = 69, Reservation_fails = 0
L2_cache_bank[17]: Access = 95, Miss = 26, Miss_rate = 0.274, Pending_hits = 69, Reservation_fails = 0
L2_cache_bank[18]: Access = 93, Miss = 24, Miss_rate = 0.258, Pending_hits = 69, Reservation_fails = 0
L2_cache_bank[19]: Access = 92, Miss = 23, Miss_rate = 0.250, Pending_hits = 69, Reservation_fails = 0
L2_cache_bank[20]: Access = 94, Miss = 25, Miss_rate = 0.266, Pending_hits = 69, Reservation_fails = 0
L2_cache_bank[21]: Access = 92, Miss = 23, Miss_rate = 0.250, Pending_hits = 69, Reservation_fails = 0
L2_total_cache_accesses = 2220
L2_total_cache_misses = 544
L2_total_cache_miss_rate = 0.2450
L2_total_cache_pending_hits = 1644
L2_total_cache_reservation_fails = 0
L2_total_cache_breakdown:
	L2_cache_stats_breakdown[GLOBAL_ACC_R][HIT] = 31
	L2_cache_stats_breakdown[GLOBAL_ACC_R][HIT_RESERVED] = 1536
	L2_cache_stats_breakdown[GLOBAL_ACC_R][MISS] = 523
	L2_cache_stats_breakdown[GLOBAL_ACC_R][RESERVATION_FAIL] = 0
	L2_cache_stats_breakdown[LOCAL_ACC_R][HIT] = 0
	L2_cache_stats_breakdown[LOCAL_ACC_R][HIT_RESERVED] = 0
	L2_cache_stats_breakdown[LOCAL_ACC_R][MISS] = 0
	L2_cache_stats_breakdown[LOCAL_ACC_R][RESERVATION_FAIL] = 0
	L2_cache_stats_breakdown[CONST_ACC_R][HIT] = 0
	L2_cache_stats_breakdown[CONST_ACC_R][HIT_RESERVED] = 27
	L2_cache_stats_breakdown[CONST_ACC_R][MISS] = 1
	L2_cache_stats_breakdown[CONST_ACC_R][RESERVATION_FAIL] = 0
	L2_cache_stats_breakdown[TEXTURE_ACC_R][HIT] = 0
	L2_cache_stats_breakdown[TEXTURE_ACC_R][HIT_RESERVED] = 0
	L2_cache_stats_breakdown[TEXTURE_ACC_R][MISS] = 0
	L2_cache_stats_breakdown[TEXTURE_ACC_R][RESERVATION_FAIL] = 0
	L2_cache_stats_breakdown[GLOBAL_ACC_W][HIT] = 1
	L2_cache_stats_breakdown[GLOBAL_ACC_W][HIT_RESERVED] = 0
	L2_cache_stats_breakdown[GLOBAL_ACC_W][MISS] = 16
	L2_cache_stats_breakdown[GLOBAL_ACC_W][RESERVATION_FAIL] = 0
	L2_cache_stats_breakdown[LOCAL_ACC_W][HIT] = 0
	L2_cache_stats_breakdown[LOCAL_ACC_W][HIT_RESERVED] = 0
	L2_cache_stats_breakdown[LOCAL_ACC_W][MISS] = 0
	L2_cache_stats_breakdown[LOCAL_ACC_W][RESERVATION_FAIL] = 0
	L2_cache_stats_breakdown[L1_WRBK_ACC][HIT] = 0
	L2_cache_stats_breakdown[L1_WRBK_ACC][HIT_RESERVED] = 0
	L2_cache_stats_breakdown[L1_WRBK_ACC][MISS] = 0
	L2_cache_stats_breakdown[L1_WRBK_ACC][RESERVATION_FAIL] = 0
	L2_cache_stats_breakdown[L2_WRBK_ACC][HIT] = 0
	L2_cache_stats_breakdown[L2_WRBK_ACC][HIT_RESERVED] = 0
	L2_cache_stats_breakdown[L2_WRBK_ACC][MISS] = 0
	L2_cache_stats_breakdown[L2_WRBK_ACC][RESERVATION_FAIL] = 0
	L2_cache_stats_breakdown[INST_ACC_R][HIT] = 0
	L2_cache_stats_breakdown[INST_ACC_R][HIT_RESERVED] = 81
	L2_cache_stats_breakdown[INST_ACC_R][MISS] = 4
	L2_cache_stats_breakdown[INST_ACC_R][RESERVATION_FAIL] = 0
	L2_cache_stats_breakdown[L1_WR_ALLOC_R][HIT] = 0
	L2_cache_stats_breakdown[L1_WR_ALLOC_R][HIT_RESERVED] = 0
	L2_cache_stats_breakdown[L1_WR_ALLOC_R][MISS] = 0
	L2_cache_stats_breakdown[L1_WR_ALLOC_R][RESERVATION_FAIL] = 0
	L2_cache_stats_breakdown[L2_WR_ALLOC_R][HIT] = 0
	L2_cache_stats_breakdown[L2_WR_ALLOC_R][HIT_RESERVED] = 0
	L2_cache_stats_breakdown[L2_WR_ALLOC_R][MISS] = 0
	L2_cache_stats_breakdown[L2_WR_ALLOC_R][RESERVATION_FAIL] = 0
	L2_cache_stats_breakdown[GLOBAL_ACC_R][TOTAL_ACCESS] = 2090
	L2_cache_stats_breakdown[CONST_ACC_R][TOTAL_ACCESS] = 28
	L2_cache_stats_breakdown[GLOBAL_ACC_W][TOTAL_ACCESS] = 17
	L2_cache_stats_breakdown[INST_ACC_R][TOTAL_ACCESS] = 85
L2_cache_data_port_util = 0.000
L2_cache_fill_port_util = 0.001

icnt_total_pkts_mem_to_simt=4706
icnt_total_pkts_simt_to_mem=2237
LD_mem_lat_dist  0 0 0 0 0 0 0 0 0 0 0 0 0 0 0 0 0 0 0 0 0 0 0 0 0 0 0
ST_mem_lat_dist  0 0 0 0 0 0 0 0 0 0 0 0 0 0 0 0 0 0 0 0 0 0 0 0 0 0 0
----------------------------Interconnect-DETAILS--------------------------------
Class 0:
Packet latency average = 30.0545
	minimum = 6
	maximum = 108
Network latency average = 19.8995
	minimum = 6
	maximum = 61
Slowest packet = 27
Flit latency average = 17.37
	minimum = 6
	maximum = 61
Slowest flit = 2916
Fragmentation average = 0
	minimum = 0
	maximum = 0
Injected packet rate average = 0.000478286
	minimum = 0.000366255 (at node 0)
	maximum = 0.000689421 (at node 1)
Accepted packet rate average = 0.000478286
	minimum = 0.000366255 (at node 0)
	maximum = 0.000689421 (at node 1)
Injected flit rate average = 0.000747914
	minimum = 0.000366255 (at node 0)
	maximum = 0.00179896 (at node 39)
Accepted flit rate average= 0.000747914
	minimum = 0.000495521 (at node 29)
	maximum = 0.0013573 (at node 1)
Injected packet length average = 1.56374
Accepted packet length average = 1.56374
Total in-flight flits = 0 (0 measured)
====== Overall Traffic Statistics ======
====== Traffic class 0 ======
Packet latency average = 30.0545 (1 samples)
	minimum = 6 (1 samples)
	maximum = 108 (1 samples)
Network latency average = 19.8995 (1 samples)
	minimum = 6 (1 samples)
	maximum = 61 (1 samples)
Flit latency average = 17.37 (1 samples)
	minimum = 6 (1 samples)
	maximum = 61 (1 samples)
Fragmentation average = 0 (1 samples)
	minimum = 0 (1 samples)
	maximum = 0 (1 samples)
Injected packet rate average = 0.000478286 (1 samples)
	minimum = 0.000366255 (1 samples)
	maximum = 0.000689421 (1 samples)
Accepted packet rate average = 0.000478286 (1 samples)
	minimum = 0.000366255 (1 samples)
	maximum = 0.000689421 (1 samples)
Injected flit rate average = 0.000747914 (1 samples)
	minimum = 0.000366255 (1 samples)
	maximum = 0.00179896 (1 samples)
Accepted flit rate average = 0.000747914 (1 samples)
	minimum = 0.000495521 (1 samples)
	maximum = 0.0013573 (1 samples)
Injected packet size average = 1.56374 (1 samples)
Accepted packet size average = 1.56374 (1 samples)
Hops average = 1 (1 samples)
----------------------------END-of-Interconnect-DETAILS-------------------------


gpgpu_simulation_time = 0 days, 0 hrs, 0 min, 40 sec (40 sec)
gpgpu_simulation_rate = 31134 (inst/sec)
gpgpu_simulation_rate = 7937 (cycle/sec)

GPGPU-Sim PTX: cudaLaunch for 0x0x401649 (mode=performance simulation) on stream 0
GPGPU-Sim PTX: pushing kernel '_Z7Kernel2PbS_S_S_i' to stream 0, gridDim= (128,1,1) blockDim = (512,1,1) 
GPGPU-Sim uArch: Shader 19 bind to kernel 2 '_Z7Kernel2PbS_S_S_i'
GPGPU-Sim uArch: CTA/core = 4, limited by: threads
GPGPU-Sim uArch: Shader 20 bind to kernel 2 '_Z7Kernel2PbS_S_S_i'
GPGPU-Sim uArch: Shader 21 bind to kernel 2 '_Z7Kernel2PbS_S_S_i'
GPGPU-Sim uArch: Shader 22 bind to kernel 2 '_Z7Kernel2PbS_S_S_i'
GPGPU-Sim uArch: Shader 23 bind to kernel 2 '_Z7Kernel2PbS_S_S_i'
GPGPU-Sim uArch: Shader 24 bind to kernel 2 '_Z7Kernel2PbS_S_S_i'
GPGPU-Sim uArch: Shader 25 bind to kernel 2 '_Z7Kernel2PbS_S_S_i'
GPGPU-Sim uArch: Shader 26 bind to kernel 2 '_Z7Kernel2PbS_S_S_i'
GPGPU-Sim uArch: Shader 27 bind to kernel 2 '_Z7Kernel2PbS_S_S_i'
GPGPU-Sim uArch: Shader 0 bind to kernel 2 '_Z7Kernel2PbS_S_S_i'
GPGPU-Sim uArch: Shader 1 bind to kernel 2 '_Z7Kernel2PbS_S_S_i'
GPGPU-Sim uArch: Shader 2 bind to kernel 2 '_Z7Kernel2PbS_S_S_i'
GPGPU-Sim uArch: Shader 3 bind to kernel 2 '_Z7Kernel2PbS_S_S_i'
GPGPU-Sim uArch: Shader 4 bind to kernel 2 '_Z7Kernel2PbS_S_S_i'
GPGPU-Sim uArch: Shader 5 bind to kernel 2 '_Z7Kernel2PbS_S_S_i'
GPGPU-Sim uArch: Shader 6 bind to kernel 2 '_Z7Kernel2PbS_S_S_i'
GPGPU-Sim uArch: Shader 7 bind to kernel 2 '_Z7Kernel2PbS_S_S_i'
GPGPU-Sim uArch: Shader 8 bind to kernel 2 '_Z7Kernel2PbS_S_S_i'
GPGPU-Sim uArch: Shader 9 bind to kernel 2 '_Z7Kernel2PbS_S_S_i'
GPGPU-Sim uArch: Shader 10 bind to kernel 2 '_Z7Kernel2PbS_S_S_i'
GPGPU-Sim uArch: Shader 11 bind to kernel 2 '_Z7Kernel2PbS_S_S_i'
GPGPU-Sim uArch: Shader 12 bind to kernel 2 '_Z7Kernel2PbS_S_S_i'
GPGPU-Sim uArch: Shader 13 bind to kernel 2 '_Z7Kernel2PbS_S_S_i'
GPGPU-Sim uArch: Shader 14 bind to kernel 2 '_Z7Kernel2PbS_S_S_i'
GPGPU-Sim uArch: Shader 15 bind to kernel 2 '_Z7Kernel2PbS_S_S_i'
GPGPU-Sim uArch: Shader 16 bind to kernel 2 '_Z7Kernel2PbS_S_S_i'
GPGPU-Sim uArch: Shader 17 bind to kernel 2 '_Z7Kernel2PbS_S_S_i'
GPGPU-Sim uArch: Shader 18 bind to kernel 2 '_Z7Kernel2PbS_S_S_i'
Destroy streams for kernel 2: size 0
kernel_name = _Z7Kernel2PbS_S_S_i 
kernel_launch_uid = 2 
gpu_sim_cycle = 2013
gpu_sim_insn = 1114192
gpu_ipc =     553.4983
gpu_tot_sim_cycle = 541681
gpu_tot_sim_insn = 2359568
gpu_tot_ipc =       4.3560
gpu_tot_issued_cta = 256
max_total_param_size = 0
gpu_stall_dramfull = 230
gpu_stall_icnt2sh    = 7103
partiton_reqs_in_parallel = 44056
partiton_reqs_in_parallel_total    = 2042304
partiton_level_parallism =      21.8857
partiton_level_parallism_total  =       3.8516
partiton_reqs_in_parallel_util = 44056
partiton_reqs_in_parallel_util_total    = 2042304
gpu_sim_cycle_parition_util = 2013
gpu_tot_sim_cycle_parition_util    = 92832
partiton_level_parallism_util =      21.8857
partiton_level_parallism_util_total  =      21.9976
partiton_replys_in_parallel = 2136
partiton_replys_in_parallel_total    = 2220
L2_BW  =     100.5756 GB/Sec
L2_BW_total  =       0.7622 GB/Sec
gpu_total_sim_rate=52434

========= Core cache stats =========
L1I_cache:
	L1I_total_cache_accesses = 43152
	L1I_total_cache_misses = 5457
	L1I_total_cache_miss_rate = 0.1265
	L1I_total_cache_pending_hits = 0
	L1I_total_cache_reservation_fails = 15477
L1D_cache:
	L1D_cache_core[0]: Access = 0, Miss = 0, Miss_rate = -nan, Pending_hits = 0, Reservation_fails = 0
	L1D_cache_core[1]: Access = 0, Miss = 0, Miss_rate = -nan, Pending_hits = 0, Reservation_fails = 0
	L1D_cache_core[2]: Access = 0, Miss = 0, Miss_rate = -nan, Pending_hits = 0, Reservation_fails = 0
	L1D_cache_core[3]: Access = 0, Miss = 0, Miss_rate = -nan, Pending_hits = 0, Reservation_fails = 0
	L1D_cache_core[4]: Access = 0, Miss = 0, Miss_rate = -nan, Pending_hits = 0, Reservation_fails = 0
	L1D_cache_core[5]: Access = 0, Miss = 0, Miss_rate = -nan, Pending_hits = 0, Reservation_fails = 0
	L1D_cache_core[6]: Access = 0, Miss = 0, Miss_rate = -nan, Pending_hits = 0, Reservation_fails = 0
	L1D_cache_core[7]: Access = 0, Miss = 0, Miss_rate = -nan, Pending_hits = 0, Reservation_fails = 0
	L1D_cache_core[8]: Access = 0, Miss = 0, Miss_rate = -nan, Pending_hits = 0, Reservation_fails = 0
	L1D_cache_core[9]: Access = 0, Miss = 0, Miss_rate = -nan, Pending_hits = 0, Reservation_fails = 0
	L1D_cache_core[10]: Access = 0, Miss = 0, Miss_rate = -nan, Pending_hits = 0, Reservation_fails = 0
	L1D_cache_core[11]: Access = 0, Miss = 0, Miss_rate = -nan, Pending_hits = 0, Reservation_fails = 0
	L1D_cache_core[12]: Access = 0, Miss = 0, Miss_rate = -nan, Pending_hits = 0, Reservation_fails = 0
	L1D_cache_core[13]: Access = 0, Miss = 0, Miss_rate = -nan, Pending_hits = 0, Reservation_fails = 0
	L1D_cache_core[14]: Access = 0, Miss = 0, Miss_rate = -nan, Pending_hits = 0, Reservation_fails = 0
	L1D_cache_core[15]: Access = 0, Miss = 0, Miss_rate = -nan, Pending_hits = 0, Reservation_fails = 0
	L1D_cache_core[16]: Access = 0, Miss = 0, Miss_rate = -nan, Pending_hits = 0, Reservation_fails = 0
	L1D_cache_core[17]: Access = 0, Miss = 0, Miss_rate = -nan, Pending_hits = 0, Reservation_fails = 0
	L1D_cache_core[18]: Access = 0, Miss = 0, Miss_rate = -nan, Pending_hits = 0, Reservation_fails = 0
	L1D_cache_core[19]: Access = 0, Miss = 0, Miss_rate = -nan, Pending_hits = 0, Reservation_fails = 0
	L1D_cache_core[20]: Access = 0, Miss = 0, Miss_rate = -nan, Pending_hits = 0, Reservation_fails = 0
	L1D_cache_core[21]: Access = 0, Miss = 0, Miss_rate = -nan, Pending_hits = 0, Reservation_fails = 0
	L1D_cache_core[22]: Access = 0, Miss = 0, Miss_rate = -nan, Pending_hits = 0, Reservation_fails = 0
	L1D_cache_core[23]: Access = 0, Miss = 0, Miss_rate = -nan, Pending_hits = 0, Reservation_fails = 0
	L1D_cache_core[24]: Access = 0, Miss = 0, Miss_rate = -nan, Pending_hits = 0, Reservation_fails = 0
	L1D_cache_core[25]: Access = 0, Miss = 0, Miss_rate = -nan, Pending_hits = 0, Reservation_fails = 0
	L1D_cache_core[26]: Access = 0, Miss = 0, Miss_rate = -nan, Pending_hits = 0, Reservation_fails = 0
	L1D_cache_core[27]: Access = 0, Miss = 0, Miss_rate = -nan, Pending_hits = 0, Reservation_fails = 0
	L1D_total_cache_accesses = 0
	L1D_total_cache_misses = 0
	L1D_total_cache_pending_hits = 0
	L1D_total_cache_reservation_fails = 0
	L1D_cache_data_port_util = 0.000
	L1D_cache_fill_port_util = 0.000
L1C_cache:
	L1C_total_cache_accesses = 24576
	L1C_total_cache_misses = 1792
	L1C_total_cache_miss_rate = 0.0729
	L1C_total_cache_pending_hits = 0
	L1C_total_cache_reservation_fails = 4886
L1T_cache:
	L1T_total_cache_accesses = 0
	L1T_total_cache_misses = 0
	L1T_total_cache_pending_hits = 0
	L1T_total_cache_reservation_fails = 0

Total_core_cache_stats:
	Total_core_cache_stats_breakdown[GLOBAL_ACC_R][HIT] = 0
	Total_core_cache_stats_breakdown[GLOBAL_ACC_R][HIT_RESERVED] = 0
	Total_core_cache_stats_breakdown[GLOBAL_ACC_R][MISS] = 0
	Total_core_cache_stats_breakdown[GLOBAL_ACC_R][RESERVATION_FAIL] = 0
	Total_core_cache_stats_breakdown[LOCAL_ACC_R][HIT] = 0
	Total_core_cache_stats_breakdown[LOCAL_ACC_R][HIT_RESERVED] = 0
	Total_core_cache_stats_breakdown[LOCAL_ACC_R][MISS] = 0
	Total_core_cache_stats_breakdown[LOCAL_ACC_R][RESERVATION_FAIL] = 0
	Total_core_cache_stats_breakdown[CONST_ACC_R][HIT] = 22784
	Total_core_cache_stats_breakdown[CONST_ACC_R][HIT_RESERVED] = 0
	Total_core_cache_stats_breakdown[CONST_ACC_R][MISS] = 1792
	Total_core_cache_stats_breakdown[CONST_ACC_R][RESERVATION_FAIL] = 4886
	Total_core_cache_stats_breakdown[TEXTURE_ACC_R][HIT] = 0
	Total_core_cache_stats_breakdown[TEXTURE_ACC_R][HIT_RESERVED] = 0
	Total_core_cache_stats_breakdown[TEXTURE_ACC_R][MISS] = 0
	Total_core_cache_stats_breakdown[TEXTURE_ACC_R][RESERVATION_FAIL] = 0
	Total_core_cache_stats_breakdown[GLOBAL_ACC_W][HIT] = 0
	Total_core_cache_stats_breakdown[GLOBAL_ACC_W][HIT_RESERVED] = 0
	Total_core_cache_stats_breakdown[GLOBAL_ACC_W][MISS] = 0
	Total_core_cache_stats_breakdown[GLOBAL_ACC_W][RESERVATION_FAIL] = 0
	Total_core_cache_stats_breakdown[LOCAL_ACC_W][HIT] = 0
	Total_core_cache_stats_breakdown[LOCAL_ACC_W][HIT_RESERVED] = 0
	Total_core_cache_stats_breakdown[LOCAL_ACC_W][MISS] = 0
	Total_core_cache_stats_breakdown[LOCAL_ACC_W][RESERVATION_FAIL] = 0
	Total_core_cache_stats_breakdown[L1_WRBK_ACC][HIT] = 0
	Total_core_cache_stats_breakdown[L1_WRBK_ACC][HIT_RESERVED] = 0
	Total_core_cache_stats_breakdown[L1_WRBK_ACC][MISS] = 0
	Total_core_cache_stats_breakdown[L1_WRBK_ACC][RESERVATION_FAIL] = 0
	Total_core_cache_stats_breakdown[L2_WRBK_ACC][HIT] = 0
	Total_core_cache_stats_breakdown[L2_WRBK_ACC][HIT_RESERVED] = 0
	Total_core_cache_stats_breakdown[L2_WRBK_ACC][MISS] = 0
	Total_core_cache_stats_breakdown[L2_WRBK_ACC][RESERVATION_FAIL] = 0
	Total_core_cache_stats_breakdown[INST_ACC_R][HIT] = 37695
	Total_core_cache_stats_breakdown[INST_ACC_R][HIT_RESERVED] = 0
	Total_core_cache_stats_breakdown[INST_ACC_R][MISS] = 5457
	Total_core_cache_stats_breakdown[INST_ACC_R][RESERVATION_FAIL] = 15477
	Total_core_cache_stats_breakdown[L1_WR_ALLOC_R][HIT] = 0
	Total_core_cache_stats_breakdown[L1_WR_ALLOC_R][HIT_RESERVED] = 0
	Total_core_cache_stats_breakdown[L1_WR_ALLOC_R][MISS] = 0
	Total_core_cache_stats_breakdown[L1_WR_ALLOC_R][RESERVATION_FAIL] = 0
	Total_core_cache_stats_breakdown[L2_WR_ALLOC_R][HIT] = 0
	Total_core_cache_stats_breakdown[L2_WR_ALLOC_R][HIT_RESERVED] = 0
	Total_core_cache_stats_breakdown[L2_WR_ALLOC_R][MISS] = 0
	Total_core_cache_stats_breakdown[L2_WR_ALLOC_R][RESERVATION_FAIL] = 0
	Total_core_cache_stats_breakdown[CONST_ACC_R][TOTAL_ACCESS] = 24576
	Total_core_cache_stats_breakdown[INST_ACC_R][TOTAL_ACCESS] = 43152
Shader 0 warp_id issue ditsribution:
warp_id:
0, 1, 2, 3, 4, 5, 6, 7, 8, 9, 10, 11, 12, 13, 14, 15, 16, 17, 18, 19, 20, 21, 22, 23, 24, 25, 26, 27, 28, 29, 30, 31, 32, 33, 34, 35, 36, 37, 38, 39, 40, 41, 42, 43, 44, 45, 46, 47, 48, 49, 50, 51, 52, 53, 54, 55, 56, 57, 58, 59, 60, 61, 62, 63, 
distro:
65, 65, 64, 65, 64, 65, 64, 65, 65, 65, 65, 65, 65, 65, 65, 65, 44, 44, 44, 44, 44, 44, 44, 44, 44, 44, 44, 44, 44, 44, 44, 44, 44, 44, 44, 44, 44, 44, 44, 44, 44, 44, 44, 59, 44, 44, 44, 44, 44, 44, 44, 44, 44, 44, 44, 44, 44, 44, 44, 44, 44, 44, 44, 44, 
gpgpu_n_tot_thrd_icount = 2499680
gpgpu_n_tot_w_icount = 78115
gpgpu_n_stall_shd_mem = 5412
gpgpu_n_mem_read_local = 0
gpgpu_n_mem_write_local = 0
gpgpu_n_mem_read_global = 4138
gpgpu_n_mem_write_global = 49
gpgpu_n_mem_texture = 0
gpgpu_n_mem_const = 28
gpgpu_n_load_insn  = 131114
gpgpu_n_store_insn = 49
gpgpu_n_shmem_insn = 0
gpgpu_n_tex_insn = 0
gpgpu_n_const_mem_insn = 0
gpgpu_n_param_mem_insn = 786432
gpgpu_n_shmem_bkconflict = 0
gpgpu_n_cache_bkconflict = 0
gpgpu_n_intrawarp_mshr_merge = 0
gpgpu_n_cmem_portconflict = 4886
gpgpu_stall_shd_mem[c_mem][bk_conf] = 4886
gpgpu_stall_shd_mem[c_mem][mshr_rc] = 0
gpgpu_stall_shd_mem[c_mem][icnt_rc] = 0
gpgpu_stall_shd_mem[c_mem][data_port_stall] = 0
gpgpu_stall_shd_mem[t_mem][mshr_rc] = 0
gpgpu_stall_shd_mem[t_mem][icnt_rc] = 0
gpgpu_stall_shd_mem[t_mem][data_port_stall] = 0
gpgpu_stall_shd_mem[s_mem][bk_conf] = 0
gpgpu_stall_shd_mem[gl_mem][bk_conf] = 0
gpgpu_stall_shd_mem[gl_mem][coal_stall] = 0
gpgpu_stall_shd_mem[gl_mem][data_port_stall] = 0
gpgpu_stall_shd_mem[g_mem_ld][mshr_rc] = 0
gpgpu_stall_shd_mem[g_mem_ld][icnt_rc] = 526
gpgpu_stall_shd_mem[g_mem_ld][wb_icnt_rc] = 0
gpgpu_stall_shd_mem[g_mem_ld][wb_rsrv_fail] = 0
gpgpu_stall_shd_mem[g_mem_st][mshr_rc] = 0
gpgpu_stall_shd_mem[g_mem_st][icnt_rc] = 0
gpgpu_stall_shd_mem[g_mem_st][wb_icnt_rc] = 0
gpgpu_stall_shd_mem[g_mem_st][wb_rsrv_fail] = 0
gpgpu_stall_shd_mem[l_mem_ld][mshr_rc] = 0
gpgpu_stall_shd_mem[l_mem_ld][icnt_rc] = 0
gpgpu_stall_shd_mem[l_mem_ld][wb_icnt_rc] = 0
gpgpu_stall_shd_mem[l_mem_ld][wb_rsrv_fail] = 0
gpgpu_stall_shd_mem[l_mem_st][mshr_rc] = 0
gpgpu_stall_shd_mem[l_mem_st][icnt_rc] = 0
gpgpu_stall_shd_mem[l_mem_ld][wb_icnt_rc] = 0
gpgpu_stall_shd_mem[l_mem_ld][wb_rsrv_fail] = 0
gpu_reg_bank_conflict_stalls = 0
Warp Occupancy Distribution:
Stall:20499	W0_Idle:162033	W0_Scoreboard:652579	W1:291	W2:0	W3:0	W4:0	W5:0	W6:0	W7:0	W8:0	W9:0	W10:0	W11:0	W12:0	W13:0	W14:0	W15:0	W16:0	W17:0	W18:0	W19:0	W20:0	W21:0	W22:0	W23:0	W24:0	W25:0	W26:0	W27:0	W28:0	W29:0	W30:0	W31:0	W32:77824
traffic_breakdown_coretomem[CONST_ACC_R] = 224 {8:28,}
traffic_breakdown_coretomem[GLOBAL_ACC_R] = 33104 {8:4138,}
traffic_breakdown_coretomem[GLOBAL_ACC_W] = 1960 {40:49,}
traffic_breakdown_coretomem[INST_ACC_R] = 1128 {8:141,}
traffic_breakdown_memtocore[CONST_ACC_R] = 2016 {72:28,}
traffic_breakdown_memtocore[GLOBAL_ACC_R] = 165520 {40:4138,}
traffic_breakdown_memtocore[GLOBAL_ACC_W] = 392 {8:49,}
traffic_breakdown_memtocore[INST_ACC_R] = 19176 {136:141,}
maxmrqlatency = 122 
maxdqlatency = 0 
maxmflatency = 41720 
averagemflatency = 4328 
[...]
F:  5554014----T:  5556619 	 St: 80369000 Sz: 4096 	 Sm: 0 	 T: memcpy_h2d(1.758947)
F:  5556619----T:  5559224 	 St: 803d4000 Sz: 4096 	 Sm: 0 	 T: memcpy_h2d(1.758947)
F:  5559224----T:  5561829 	 St: 8030a000 Sz: 4096 	 Sm: 0 	 T: memcpy_h2d(1.758947)
F:  5561829----T:  5564434 	 St: 8031c000 Sz: 4096 	 Sm: 0 	 T: memcpy_h2d(1.758947)
F:  5564434----T:  5567039 	 St: 8037e000 Sz: 4096 	 Sm: 0 	 T: memcpy_h2d(1.758947)
F:  5567039----T:  5569644 	 St: 80394000 Sz: 4096 	 Sm: 0 	 T: memcpy_h2d(1.758947)
F:  5569644----T:  5572249 	 St: 80418000 Sz: 4096 	 Sm: 0 	 T: memcpy_h2d(1.758947)
F:  5572249----T:  5574854 	 St: 80382000 Sz: 4096 	 Sm: 0 	 T: memcpy_h2d(1.758947)
F:  5574854----T:  5577459 	 St: 80345000 Sz: 4096 	 Sm: 0 	 T: memcpy_h2d(1.758947)
F:  5577459----T:  5580064 	 St: 803d2000 Sz: 4096 	 Sm: 0 	 T: memcpy_h2d(1.758947)
F:  5580064----T:  5582669 	 St: 802b1000 Sz: 4096 	 Sm: 0 	 T: memcpy_h2d(1.758947)
F:  5582669----T:  5585274 	 St: 803a7000 Sz: 4096 	 Sm: 0 	 T: memcpy_h2d(1.758947)
F:  5585274----T:  5587879 	 St: 80273000 Sz: 4096 	 Sm: 0 	 T: memcpy_h2d(1.758947)
F:  5587879----T:  5590484 	 St: 803cb000 Sz: 4096 	 Sm: 0 	 T: memcpy_h2d(1.758947)
F:  5590484----T:  5593089 	 St: 80428000 Sz: 4096 	 Sm: 0 	 T: memcpy_h2d(1.758947)
F:  5593089----T:  5595694 	 St: 803c9000 Sz: 4096 	 Sm: 0 	 T: memcpy_h2d(1.758947)
F:  5595694----T:  5598299 	 St: 803ba000 Sz: 4096 	 Sm: 0 	 T: memcpy_h2d(1.758947)
F:  5598299----T:  5600904 	 St: 803df000 Sz: 4096 	 Sm: 0 	 T: memcpy_h2d(1.758947)
F:  5600904----T:  5603509 	 St: 803b5000 Sz: 4096 	 Sm: 0 	 T: memcpy_h2d(1.758947)
F:  5603509----T:  5606114 	 St: 80437000 Sz: 4096 	 Sm: 0 	 T: memcpy_h2d(1.758947)
F:  5606114----T:  5608719 	 St: 8043f000 Sz: 4096 	 Sm: 0 	 T: memcpy_h2d(1.758947)
F:  5608719----T:  5611324 	 St: 803fb000 Sz: 4096 	 Sm: 0 	 T: memcpy_h2d(1.758947)
F:  5611324----T:  5613929 	 St: 803a3000 Sz: 4096 	 Sm: 0 	 T: memcpy_h2d(1.758947)
F:  5613929----T:  5616534 	 St: 8042a000 Sz: 4096 	 Sm: 0 	 T: memcpy_h2d(1.758947)
F:  5616534----T:  5619139 	 St: 80425000 Sz: 4096 	 Sm: 0 	 T: memcpy_h2d(1.758947)
F:  5619139----T:  5621744 	 St: 80403000 Sz: 4096 	 Sm: 0 	 T: memcpy_h2d(1.758947)
F:  5621744----T:  5624349 	 St: 80434000 Sz: 4096 	 Sm: 0 	 T: memcpy_h2d(1.758947)
F:  5624349----T:  5626954 	 St: 80424000 Sz: 4096 	 Sm: 0 	 T: memcpy_h2d(1.758947)
F:  5626954----T:  5629559 	 St: 80436000 Sz: 4096 	 Sm: 0 	 T: memcpy_h2d(1.758947)
F:  5629559----T:  5632164 	 St: 80396000 Sz: 4096 	 Sm: 0 	 T: memcpy_h2d(1.758947)
F:  5632164----T:  5634769 	 St: 80444000 Sz: 4096 	 Sm: 0 	 T: memcpy_h2d(1.758947)
F:  5634769----T:  5637374 	 St: 80413000 Sz: 4096 	 Sm: 0 	 T: memcpy_h2d(1.758947)
F:  5637374----T:  5639979 	 St: 80371000 Sz: 4096 	 Sm: 0 	 T: memcpy_h2d(1.758947)
F:  5639979----T:  5642584 	 St: 80385000 Sz: 4096 	 Sm: 0 	 T: memcpy_h2d(1.758947)
F:  5642584----T:  5645189 	 St: 8051b000 Sz: 4096 	 Sm: 0 	 T: memcpy_h2d(1.758947)
F:  5645189----T:  5647794 	 St: 80398000 Sz: 4096 	 Sm: 0 	 T: memcpy_h2d(1.758947)
F:  5647794----T:  5650399 	 St: 8025d000 Sz: 4096 	 Sm: 0 	 T: memcpy_h2d(1.758947)
F:  5650399----T:  5653004 	 St: 80511000 Sz: 4096 	 Sm: 0 	 T: memcpy_h2d(1.758947)
F:  5653004----T:  5655609 	 St: 8051f000 Sz: 4096 	 Sm: 0 	 T: memcpy_h2d(1.758947)
F:  5655609----T:  5658214 	 St: 80386000 Sz: 4096 	 Sm: 0 	 T: memcpy_h2d(1.758947)
F:  5658214----T:  5660819 	 St: 80323000 Sz: 4096 	 Sm: 0 	 T: memcpy_h2d(1.758947)
F:  5660819----T:  5663424 	 St: 80259000 Sz: 4096 	 Sm: 0 	 T: memcpy_h2d(1.758947)
F:  5663424----T:  5666029 	 St: 8038e000 Sz: 4096 	 Sm: 0 	 T: memcpy_h2d(1.758947)
F:  5666029----T:  5668634 	 St: 8036d000 Sz: 4096 	 Sm: 0 	 T: memcpy_h2d(1.758947)
F:  5668634----T:  5671239 	 St: 8024d000 Sz: 4096 	 Sm: 0 	 T: memcpy_h2d(1.758947)
F:  5671239----T:  5673844 	 St: 80295000 Sz: 4096 	 Sm: 0 	 T: memcpy_h2d(1.758947)
F:  5673844----T:  5676449 	 St: 80279000 Sz: 4096 	 Sm: 0 	 T: memcpy_h2d(1.758947)
F:  5676449----T:  5679054 	 St: 802a3000 Sz: 4096 	 Sm: 0 	 T: memcpy_h2d(1.758947)
F:  5679054----T:  5681659 	 St: 8034d000 Sz: 4096 	 Sm: 0 	 T: memcpy_h2d(1.758947)
F:  5681659----T:  5684264 	 St: 80356000 Sz: 4096 	 Sm: 0 	 T: memcpy_h2d(1.758947)
F:  5684264----T:  5686869 	 St: 80341000 Sz: 4096 	 Sm: 0 	 T: memcpy_h2d(1.758947)
F:  5686869----T:  5689474 	 St: 80342000 Sz: 4096 	 Sm: 0 	 T: memcpy_h2d(1.758947)
F:  5689474----T:  5692079 	 St: 80349000 Sz: 4096 	 Sm: 0 	 T: memcpy_h2d(1.758947)
F:  5692079----T:  5694684 	 St: 802aa000 Sz: 4096 	 Sm: 0 	 T: memcpy_h2d(1.758947)
F:  5694684----T:  5697289 	 St: 803ff000 Sz: 4096 	 Sm: 0 	 T: memcpy_h2d(1.758947)
F:  5697289----T:  5699894 	 St: 8028c000 Sz: 4096 	 Sm: 0 	 T: memcpy_h2d(1.758947)
F:  5699894----T:  5702499 	 St: 80268000 Sz: 4096 	 Sm: 0 	 T: memcpy_h2d(1.758947)
F:  5702499----T:  5705104 	 St: 8027f000 Sz: 4096 	 Sm: 0 	 T: memcpy_h2d(1.758947)
F:  5705104----T:  5707709 	 St: 803ec000 Sz: 4096 	 Sm: 0 	 T: memcpy_h2d(1.758947)
F:  5707709----T:  5710314 	 St: 8038d000 Sz: 4096 	 Sm: 0 	 T: memcpy_h2d(1.758947)
F:  5710314----T:  5712919 	 St: 8030f000 Sz: 4096 	 Sm: 0 	 T: memcpy_h2d(1.758947)
F:  5712919----T:  5715524 	 St: 80513000 Sz: 4096 	 Sm: 0 	 T: memcpy_h2d(1.758947)
F:  5715524----T:  5718129 	 St: 802b7000 Sz: 4096 	 Sm: 0 	 T: memcpy_h2d(1.758947)
F:  5718129----T:  5720734 	 St: 802b8000 Sz: 4096 	 Sm: 0 	 T: memcpy_h2d(1.758947)
F:  5718566----T:  5721171 	 St: 80502000 Sz: 4096 	 Sm: 0 	 T: write_back(1.758947)
F:  5720734----T:  5723339 	 St: 80454000 Sz: 4096 	 Sm: 0 	 T: memcpy_h2d(1.758947)
F:  5723339----T:  5725944 	 St: 80451000 Sz: 4096 	 Sm: 0 	 T: memcpy_h2d(1.758947)
F:  5725944----T:  5728549 	 St: 802bb000 Sz: 4096 	 Sm: 0 	 T: memcpy_h2d(1.758947)
F:  5728549----T:  5731154 	 St: 802d5000 Sz: 4096 	 Sm: 0 	 T: memcpy_h2d(1.758947)
F:  5731154----T:  5733759 	 St: 80430000 Sz: 4096 	 Sm: 0 	 T: memcpy_h2d(1.758947)
F:  5733759----T:  5736364 	 St: 80459000 Sz: 4096 	 Sm: 0 	 T: memcpy_h2d(1.758947)
F:  5736364----T:  5738969 	 St: 802ea000 Sz: 4096 	 Sm: 0 	 T: memcpy_h2d(1.758947)
F:  5738969----T:  5741574 	 St: 8045b000 Sz: 4096 	 Sm: 0 	 T: memcpy_h2d(1.758947)
F:  5739317----T:  5741922 	 St: 80503000 Sz: 4096 	 Sm: 0 	 T: write_back(1.758947)
F:  5741574----T:  5744179 	 St: 8045c000 Sz: 4096 	 Sm: 0 	 T: memcpy_h2d(1.758947)
F:  5741922----T:  5744527 	 St: 80506000 Sz: 4096 	 Sm: 0 	 T: write_back(1.758947)
F:  5744179----T:  5746784 	 St: 80252000 Sz: 4096 	 Sm: 0 	 T: memcpy_h2d(1.758947)
F:  5746784----T:  5749389 	 St: 80346000 Sz: 4096 	 Sm: 0 	 T: memcpy_h2d(1.758947)
F:  5749389----T:  5751994 	 St: 80291000 Sz: 4096 	 Sm: 0 	 T: memcpy_h2d(1.758947)
F:  5751994----T:  5754599 	 St: 8030c000 Sz: 4096 	 Sm: 0 	 T: memcpy_h2d(1.758947)
F:  5754599----T:  5757204 	 St: 8040f000 Sz: 4096 	 Sm: 0 	 T: memcpy_h2d(1.758947)
F:  5757204----T:  5759809 	 St: 8044a000 Sz: 4096 	 Sm: 0 	 T: memcpy_h2d(1.758947)
F:  5759809----T:  5762414 	 St: 802c0000 Sz: 4096 	 Sm: 0 	 T: memcpy_h2d(1.758947)
F:  5762414----T:  5765019 	 St: 802c2000 Sz: 4096 	 Sm: 0 	 T: memcpy_h2d(1.758947)
F:  5762866----T:  5765471 	 St: 8052c000 Sz: 4096 	 Sm: 0 	 T: write_back(1.758947)
F:  5765019----T:  5767624 	 St: 80470000 Sz: 4096 	 Sm: 0 	 T: memcpy_h2d(1.758947)
F:  5765498----T:  5768103 	 St: 8050e000 Sz: 4096 	 Sm: 0 	 T: write_back(1.758947)
F:  5767624----T:  5770229 	 St: 80467000 Sz: 4096 	 Sm: 0 	 T: memcpy_h2d(1.758947)
F:  5770229----T:  5772834 	 St: 80473000 Sz: 4096 	 Sm: 0 	 T: memcpy_h2d(1.758947)
F:  5772834----T:  5775439 	 St: 80468000 Sz: 4096 	 Sm: 0 	 T: memcpy_h2d(1.758947)
F:  5775439----T:  5778044 	 St: 80460000 Sz: 4096 	 Sm: 0 	 T: memcpy_h2d(1.758947)
F:  5778044----T:  5780649 	 St: 8046a000 Sz: 4096 	 Sm: 0 	 T: memcpy_h2d(1.758947)
F:  5780649----T:  5783254 	 St: 80502000 Sz: 4096 	 Sm: 0 	 T: memcpy_h2d(1.758947)
F:  5783254----T:  5785859 	 St: 8041a000 Sz: 4096 	 Sm: 0 	 T: memcpy_h2d(1.758947)
F:  5785859----T:  5788464 	 St: 80408000 Sz: 4096 	 Sm: 0 	 T: memcpy_h2d(1.758947)
F:  5788464----T:  5791069 	 St: 80355000 Sz: 4096 	 Sm: 0 	 T: memcpy_h2d(1.758947)
F:  5791069----T:  5793674 	 St: 8037d000 Sz: 4096 	 Sm: 0 	 T: memcpy_h2d(1.758947)
F:  5793674----T:  5796279 	 St: 803a8000 Sz: 4096 	 Sm: 0 	 T: memcpy_h2d(1.758947)
F:  5796279----T:  5798884 	 St: 803b6000 Sz: 4096 	 Sm: 0 	 T: memcpy_h2d(1.758947)
F:  5798884----T:  5801489 	 St: 8028f000 Sz: 4096 	 Sm: 0 	 T: memcpy_h2d(1.758947)
F:  5801489----T:  5804094 	 St: 8024d000 Sz: 4096 	 Sm: 0 	 T: memcpy_h2d(1.758947)
F:  5804094----T:  5806699 	 St: 80503000 Sz: 4096 	 Sm: 0 	 T: memcpy_h2d(1.758947)
F:  5806699----T:  5809304 	 St: 8037e000 Sz: 4096 	 Sm: 0 	 T: memcpy_h2d(1.758947)
F:  5809304----T:  5811909 	 St: 80311000 Sz: 4096 	 Sm: 0 	 T: memcpy_h2d(1.758947)
F:  5811909----T:  5814514 	 St: 80399000 Sz: 4096 	 Sm: 0 	 T: memcpy_h2d(1.758947)
F:  5814514----T:  5817119 	 St: 80389000 Sz: 4096 	 Sm: 0 	 T: memcpy_h2d(1.758947)
F:  5817119----T:  5819724 	 St: 80359000 Sz: 4096 	 Sm: 0 	 T: memcpy_h2d(1.758947)
F:  5819724----T:  5822329 	 St: 802ac000 Sz: 4096 	 Sm: 0 	 T: memcpy_h2d(1.758947)
F:  5822329----T:  5824934 	 St: 803a3000 Sz: 4096 	 Sm: 0 	 T: memcpy_h2d(1.758947)
F:  5824934----T:  5827539 	 St: 803de000 Sz: 4096 	 Sm: 0 	 T: memcpy_h2d(1.758947)
F:  5827539----T:  5830144 	 St: 8039d000 Sz: 4096 	 Sm: 0 	 T: memcpy_h2d(1.758947)
F:  5830144----T:  5832749 	 St: 80341000 Sz: 4096 	 Sm: 0 	 T: memcpy_h2d(1.758947)
F:  5832749----T:  5835354 	 St: 80385000 Sz: 4096 	 Sm: 0 	 T: memcpy_h2d(1.758947)
F:  5835354----T:  5837959 	 St: 80506000 Sz: 4096 	 Sm: 0 	 T: memcpy_h2d(1.758947)
F:  5837959----T:  5840564 	 St: 80434000 Sz: 4096 	 Sm: 0 	 T: memcpy_h2d(1.758947)
F:  5840564----T:  5843169 	 St: 80465000 Sz: 4096 	 Sm: 0 	 T: memcpy_h2d(1.758947)
F:  5843169----T:  5845774 	 St: 8046b000 Sz: 4096 	 Sm: 0 	 T: memcpy_h2d(1.758947)
F:  5844899----T:  5847504 	 St: 80507000 Sz: 4096 	 Sm: 0 	 T: write_back(1.758947)
F:  5845774----T:  5848379 	 St: 8046c000 Sz: 4096 	 Sm: 0 	 T: memcpy_h2d(1.758947)
F:  5848379----T:  5850984 	 St: 8050e000 Sz: 4096 	 Sm: 0 	 T: memcpy_h2d(1.758947)
F:  5850984----T:  5853589 	 St: 8052c000 Sz: 4096 	 Sm: 0 	 T: memcpy_h2d(1.758947)
F:  6076140----T:  6084726 	 	 	 Kl: 16 	 Sm: 0 	 T: kernel_launch(5.797434)
F:  6076768----T:  6079373 	 St: 802c7000 Sz: 4096 	 Sm: 0 	 T: memcpy_h2d(1.758947)
F:  6079373----T:  6081978 	 St: 802cf000 Sz: 4096 	 Sm: 0 	 T: memcpy_h2d(1.758947)
F:  6081978----T:  6084583 	 St: 802d0000 Sz: 4096 	 Sm: 0 	 T: memcpy_h2d(1.758947)
F:  6084726----T:  6087261 	 St: 80000000 Sz: 1 	 Sm: 0 	 T: memcpy_d2h(1.711681)
F:  6087262----T:  6089797 	 St: 80000000 Sz: 1 	 Sm: 0 	 T: memcpy_h2d(1.711681)
F:  6311948----T:  6521543 	 	 	 Kl: 17 	 Sm: 0 	 T: kernel_launch(141.522614)
F:  6312489----T:  6315094 	 St: 80246000 Sz: 4096 	 Sm: 0 	 T: memcpy_h2d(1.758947)
F:  6313183----T:  6315788 	 St: 802ed000 Sz: 4096 	 Sm: 0 	 T: write_back(1.758947)
F:  6315094----T:  6317699 	 St: 80257000 Sz: 4096 	 Sm: 0 	 T: memcpy_h2d(1.758947)
F:  6315788----T:  6318393 	 St: 80532000 Sz: 4096 	 Sm: 0 	 T: write_back(1.758947)
F:  6317699----T:  6320304 	 St: 802a0000 Sz: 4096 	 Sm: 0 	 T: memcpy_h2d(1.758947)
F:  6318393----T:  6320998 	 St: 802c7000 Sz: 4096 	 Sm: 0 	 T: write_back(1.758947)
F:  6320304----T:  6322909 	 St: 8029b000 Sz: 4096 	 Sm: 0 	 T: memcpy_h2d(1.758947)
F:  6320998----T:  6323603 	 St: 80514000 Sz: 4096 	 Sm: 0 	 T: write_back(1.758947)
F:  6322909----T:  6325514 	 St: 802fc000 Sz: 4096 	 Sm: 0 	 T: memcpy_h2d(1.758947)
F:  6323603----T:  6326208 	 St: 804f6000 Sz: 4096 	 Sm: 0 	 T: write_back(1.758947)
F:  6325514----T:  6328119 	 St: 802fd000 Sz: 4096 	 Sm: 0 	 T: memcpy_h2d(1.758947)
F:  6326208----T:  6328813 	 St: 80504000 Sz: 4096 	 Sm: 0 	 T: write_back(1.758947)
F:  6328119----T:  6330724 	 St: 802fa000 Sz: 4096 	 Sm: 0 	 T: memcpy_h2d(1.758947)
F:  6330724----T:  6333329 	 St: 8033f000 Sz: 4096 	 Sm: 0 	 T: memcpy_h2d(1.758947)
F:  6333329----T:  6335934 	 St: 8035b000 Sz: 4096 	 Sm: 0 	 T: memcpy_h2d(1.758947)
F:  6335934----T:  6338539 	 St: 8039b000 Sz: 4096 	 Sm: 0 	 T: memcpy_h2d(1.758947)
F:  6338539----T:  6341144 	 St: 80352000 Sz: 4096 	 Sm: 0 	 T: memcpy_h2d(1.758947)
F:  6341144----T:  6343749 	 St: 80335000 Sz: 4096 	 Sm: 0 	 T: memcpy_h2d(1.758947)
F:  6343749----T:  6346354 	 St: 80392000 Sz: 4096 	 Sm: 0 	 T: memcpy_h2d(1.758947)
F:  6346354----T:  6348959 	 St: 8030e000 Sz: 4096 	 Sm: 0 	 T: memcpy_h2d(1.758947)
F:  6348959----T:  6351564 	 St: 80377000 Sz: 4096 	 Sm: 0 	 T: memcpy_h2d(1.758947)
F:  6351564----T:  6354169 	 St: 80372000 Sz: 4096 	 Sm: 0 	 T: memcpy_h2d(1.758947)
F:  6354169----T:  6356774 	 St: 80387000 Sz: 4096 	 Sm: 0 	 T: memcpy_h2d(1.758947)
F:  6356774----T:  6359379 	 St: 8036f000 Sz: 4096 	 Sm: 0 	 T: memcpy_h2d(1.758947)
F:  6359379----T:  6361984 	 St: 8031d000 Sz: 4096 	 Sm: 0 	 T: memcpy_h2d(1.758947)
F:  6361984----T:  6364589 	 St: 80319000 Sz: 4096 	 Sm: 0 	 T: memcpy_h2d(1.758947)
F:  6364589----T:  6367194 	 St: 80325000 Sz: 4096 	 Sm: 0 	 T: memcpy_h2d(1.758947)
F:  6367194----T:  6369799 	 St: 803ad000 Sz: 4096 	 Sm: 0 	 T: memcpy_h2d(1.758947)
F:  6369799----T:  6372404 	 St: 80379000 Sz: 4096 	 Sm: 0 	 T: memcpy_h2d(1.758947)
F:  6372404----T:  6375009 	 St: 803ce000 Sz: 4096 	 Sm: 0 	 T: memcpy_h2d(1.758947)
F:  6375009----T:  6377614 	 St: 803cc000 Sz: 4096 	 Sm: 0 	 T: memcpy_h2d(1.758947)
F:  6377614----T:  6380219 	 St: 803eb000 Sz: 4096 	 Sm: 0 	 T: memcpy_h2d(1.758947)
F:  6380219----T:  6382824 	 St: 8039a000 Sz: 4096 	 Sm: 0 	 T: memcpy_h2d(1.758947)
F:  6382824----T:  6385429 	 St: 803f0000 Sz: 4096 	 Sm: 0 	 T: memcpy_h2d(1.758947)
F:  6385429----T:  6388034 	 St: 8042b000 Sz: 4096 	 Sm: 0 	 T: memcpy_h2d(1.758947)
F:  6388034----T:  6390639 	 St: 803b1000 Sz: 4096 	 Sm: 0 	 T: memcpy_h2d(1.758947)
F:  6390639----T:  6393244 	 St: 803ed000 Sz: 4096 	 Sm: 0 	 T: memcpy_h2d(1.758947)
F:  6393244----T:  6395849 	 St: 80402000 Sz: 4096 	 Sm: 0 	 T: memcpy_h2d(1.758947)
F:  6395849----T:  6398454 	 St: 803d0000 Sz: 4096 	 Sm: 0 	 T: memcpy_h2d(1.758947)
F:  6398454----T:  6401059 	 St: 803c7000 Sz: 4096 	 Sm: 0 	 T: memcpy_h2d(1.758947)
F:  6401059----T:  6403664 	 St: 803df000 Sz: 4096 	 Sm: 0 	 T: memcpy_h2d(1.758947)
F:  6403664----T:  6406269 	 St: 80411000 Sz: 4096 	 Sm: 0 	 T: memcpy_h2d(1.758947)
F:  6406269----T:  6408874 	 St: 803a6000 Sz: 4096 	 Sm: 0 	 T: memcpy_h2d(1.758947)
F:  6408874----T:  6411479 	 St: 8041b000 Sz: 4096 	 Sm: 0 	 T: memcpy_h2d(1.758947)
F:  6411479----T:  6414084 	 St: 80438000 Sz: 4096 	 Sm: 0 	 T: memcpy_h2d(1.758947)
F:  6414084----T:  6416689 	 St: 8043e000 Sz: 4096 	 Sm: 0 	 T: memcpy_h2d(1.758947)
F:  6416689----T:  6419294 	 St: 803be000 Sz: 4096 	 Sm: 0 	 T: memcpy_h2d(1.758947)
F:  6419294----T:  6421899 	 St: 803e6000 Sz: 4096 	 Sm: 0 	 T: memcpy_h2d(1.758947)
F:  6421899----T:  6424504 	 St: 802ed000 Sz: 4096 	 Sm: 0 	 T: memcpy_h2d(1.758947)
F:  6424504----T:  6427109 	 St: 80404000 Sz: 4096 	 Sm: 0 	 T: memcpy_h2d(1.758947)
F:  6424792----T:  6427397 	 St: 8052e000 Sz: 4096 	 Sm: 0 	 T: write_back(1.758947)
F:  6427109----T:  6429714 	 St: 803f2000 Sz: 4096 	 Sm: 0 	 T: memcpy_h2d(1.758947)
F:  6429714----T:  6432319 	 St: 8030c000 Sz: 4096 	 Sm: 0 	 T: memcpy_h2d(1.758947)
F:  6432319----T:  6434924 	 St: 80343000 Sz: 4096 	 Sm: 0 	 T: memcpy_h2d(1.758947)
F:  6434924----T:  6437529 	 St: 803f4000 Sz: 4096 	 Sm: 0 	 T: memcpy_h2d(1.758947)
F:  6437529----T:  6440134 	 St: 80439000 Sz: 4096 	 Sm: 0 	 T: memcpy_h2d(1.758947)
F:  6440134----T:  6442739 	 St: 80317000 Sz: 4096 	 Sm: 0 	 T: memcpy_h2d(1.758947)
F:  6442739----T:  6445344 	 St: 8034f000 Sz: 4096 	 Sm: 0 	 T: memcpy_h2d(1.758947)
F:  6445344----T:  6447949 	 St: 80354000 Sz: 4096 	 Sm: 0 	 T: memcpy_h2d(1.758947)
F:  6447949----T:  6450554 	 St: 802f9000 Sz: 4096 	 Sm: 0 	 T: memcpy_h2d(1.758947)
F:  6450554----T:  6453159 	 St: 80339000 Sz: 4096 	 Sm: 0 	 T: memcpy_h2d(1.758947)
F:  6453159----T:  6455764 	 St: 80309000 Sz: 4096 	 Sm: 0 	 T: memcpy_h2d(1.758947)
F:  6455764----T:  6458369 	 St: 8038a000 Sz: 4096 	 Sm: 0 	 T: memcpy_h2d(1.758947)
F:  6458369----T:  6460974 	 St: 80310000 Sz: 4096 	 Sm: 0 	 T: memcpy_h2d(1.758947)
F:  6460974----T:  6463579 	 St: 803bf000 Sz: 4096 	 Sm: 0 	 T: memcpy_h2d(1.758947)
F:  6463579----T:  6466184 	 St: 803dc000 Sz: 4096 	 Sm: 0 	 T: memcpy_h2d(1.758947)
F:  6466184----T:  6468789 	 St: 8043b000 Sz: 4096 	 Sm: 0 	 T: memcpy_h2d(1.758947)
F:  6468789----T:  6471394 	 St: 8038f000 Sz: 4096 	 Sm: 0 	 T: memcpy_h2d(1.758947)
F:  6471394----T:  6473999 	 St: 80316000 Sz: 4096 	 Sm: 0 	 T: memcpy_h2d(1.758947)
F:  6473999----T:  6476604 	 St: 80370000 Sz: 4096 	 Sm: 0 	 T: memcpy_h2d(1.758947)
F:  6476604----T:  6479209 	 St: 8043a000 Sz: 4096 	 Sm: 0 	 T: memcpy_h2d(1.758947)
F:  6479209----T:  6481814 	 St: 803c3000 Sz: 4096 	 Sm: 0 	 T: memcpy_h2d(1.758947)
F:  6481814----T:  6484419 	 St: 803b9000 Sz: 4096 	 Sm: 0 	 T: memcpy_h2d(1.758947)
F:  6484419----T:  6487024 	 St: 802a1000 Sz: 4096 	 Sm: 0 	 T: memcpy_h2d(1.758947)
F:  6487024----T:  6489629 	 St: 803f8000 Sz: 4096 	 Sm: 0 	 T: memcpy_h2d(1.758947)
F:  6489629----T:  6492234 	 St: 802c2000 Sz: 4096 	 Sm: 0 	 T: memcpy_h2d(1.758947)
F:  6492234----T:  6494839 	 St: 80454000 Sz: 4096 	 Sm: 0 	 T: memcpy_h2d(1.758947)
F:  6494839----T:  6497444 	 St: 8044c000 Sz: 4096 	 Sm: 0 	 T: memcpy_h2d(1.758947)
F:  6497444----T:  6500049 	 St: 80457000 Sz: 4096 	 Sm: 0 	 T: memcpy_h2d(1.758947)
F:  6500049----T:  6502654 	 St: 80460000 Sz: 4096 	 Sm: 0 	 T: memcpy_h2d(1.758947)
F:  6502654----T:  6505259 	 St: 802c4000 Sz: 4096 	 Sm: 0 	 T: memcpy_h2d(1.758947)
F:  6505259----T:  6507864 	 St: 8046d000 Sz: 4096 	 Sm: 0 	 T: memcpy_h2d(1.758947)
F:  6507864----T:  6510469 	 St: 8045e000 Sz: 4096 	 Sm: 0 	 T: memcpy_h2d(1.758947)
F:  6510469----T:  6513074 	 St: 80405000 Sz: 4096 	 Sm: 0 	 T: memcpy_h2d(1.758947)
F:  6513074----T:  6515679 	 St: 803f7000 Sz: 4096 	 Sm: 0 	 T: memcpy_h2d(1.758947)
F:  6515679----T:  6518284 	 St: 8043d000 Sz: 4096 	 Sm: 0 	 T: memcpy_h2d(1.758947)
F:  6518284----T:  6520889 	 St: 803a4000 Sz: 4096 	 Sm: 0 	 T: memcpy_h2d(1.758947)
F:  6743693----T:  6747097 	 	 	 Kl: 18 	 Sm: 0 	 T: kernel_launch(2.298447)
F:  6744361----T:  6746966 	 St: 802c7000 Sz: 4096 	 Sm: 0 	 T: memcpy_h2d(1.758947)
F:  6747097----T:  6749632 	 St: 80000000 Sz: 1 	 Sm: 0 	 T: memcpy_d2h(1.711681)
F:  6749633----T:  6752168 	 St: 80000000 Sz: 1 	 Sm: 0 	 T: memcpy_h2d(1.711681)
F:  6974319----T:  6976543 	 	 	 Kl: 19 	 Sm: 0 	 T: kernel_launch(1.501688)
F:  7198693----T:  7199662 	 	 	 Kl: 20 	 Sm: 0 	 T: kernel_launch(0.654288)
F:  7199662----T:  7202197 	 St: 80000000 Sz: 1 	 Sm: 0 	 T: memcpy_d2h(1.711681)
F:  7202198----T:  7204803 	 St: 0 Sz: 4096 	 Sm: 0 	 T: device_sync(1.758947)
F:  7202198----T:  7210438 	 St: 0 Sz: 61440 	 Sm: 0 	 T: device_sync(5.563808)
F:  7213043----T:  7215648 	 St: 0 Sz: 4096 	 Sm: 0 	 T: device_sync(1.758947)
F:  7213043----T:  7221283 	 St: 0 Sz: 61440 	 Sm: 0 	 T: device_sync(5.563808)
F:  7223888----T:  7226493 	 St: 0 Sz: 4096 	 Sm: 0 	 T: device_sync(1.758947)
F:  7223888----T:  7239583 	 St: 0 Sz: 126976 	 Sm: 0 	 T: device_sync(10.597569)
F:  7242188----T:  7244793 	 St: 0 Sz: 4096 	 Sm: 0 	 T: device_sync(1.758947)
F:  7242188----T:  7262103 	 St: 0 Sz: 163840 	 Sm: 0 	 T: device_sync(13.446996)
Tot_prefetch_time: 0(cycle), 0.000000(us)
Tot_kernel_exec_time: 2708478(cycle), 1828.817017(us)
Tot_kernel_exec_time_and_fault_time: 64421748(cycle), 43498.816406(us)
Tot_memcpy_h2d_time: 2674477(cycle), 1805.858887(us)
Tot_memcpy_d2h_time: 25350(cycle), 17.116814(us)
Tot_memcpy_time: 2699827(cycle), 1822.975708(us)
Tot_devicesync_time: 62510(cycle), 42.207966(us)
Tot_writeback_time: 161510(cycle), 109.054695(us)
Tot_memcpy_d2h_sync_wb_time: 249370(cycle), 168.379471(us)
GPGPU-Sim: *** exit detected ***
