

        *** GPGPU-Sim Simulator Version 3.2.2  [build gpgpu-sim_git-commit-7c62de1d26a7fea160a1181332b97276bc435f13_modified_1] ***


GPGPU-Sim PTX: simulation mode 0 (can change with PTX_SIM_MODE_FUNC environment variable:
               1=functional simulation only, 0=detailed performance simulator)
GPGPU-Sim: Configuration options:

-network_mode                           1 # Interconnection network mode
-inter_config_file   config_fermi_islip.icnt # Interconnection network config file
-gpgpu_ptx_use_cuobjdump                    1 # Use cuobjdump to extract ptx and sass from binaries
-gpgpu_experimental_lib_support                    0 # Try to extract code from cuda libraries [Broken because of unknown cudaGetExportTable]
-gpgpu_ptx_convert_to_ptxplus                    0 # Convert SASS (native ISA) to ptxplus and run ptxplus
-gpgpu_ptx_force_max_capability                   20 # Force maximum compute capability
-gpgpu_ptx_inst_debug_to_file                    0 # Dump executed instructions' debug information to file
-gpgpu_ptx_inst_debug_file       inst_debug.txt # Executed instructions' debug output file
-gpgpu_ptx_inst_debug_thread_uid                    1 # Thread UID for executed instructions' debug output
-gpgpu_simd_model                       1 # 1 = post-dominator
-gpgpu_shader_core_pipeline              2048:32 # shader core pipeline config, i.e., {<nthread>:<warpsize>}
-gpgpu_tex_cache:l1  16:128:24,L:R:m:N:L,F:128:4,128:2 # per-shader L1 texture cache  (READ-ONLY) config  {<nsets>:<bsize>:<assoc>,<rep>:<wr>:<alloc>:<wr_alloc>,<mshr>:<N>:<merge>,<mq>:<rf>}
-gpgpu_const_cache:l1 128:64:2,L:R:f:N:L,A:2:64,4 # per-shader L1 constant memory cache  (READ-ONLY) config  {<nsets>:<bsize>:<assoc>,<rep>:<wr>:<alloc>:<wr_alloc>,<mshr>:<N>:<merge>,<mq>} 
-gpgpu_cache:il1     8:128:4,L:R:f:N:L,A:2:48,4 # shader L1 instruction cache config  {<nsets>:<bsize>:<assoc>,<rep>:<wr>:<alloc>:<wr_alloc>,<mshr>:<N>:<merge>,<mq>} 
-gpgpu_cache:dl1     64:128:6,L:L:m:N:H,A:128:8,8 # per-shader L1 data cache config  {<nsets>:<bsize>:<assoc>,<rep>:<wr>:<alloc>:<wr_alloc>,<mshr>:<N>:<merge>,<mq> | none}
-gpgpu_cache:dl1PrefL1                 none # per-shader L1 data cache config  {<nsets>:<bsize>:<assoc>,<rep>:<wr>:<alloc>:<wr_alloc>,<mshr>:<N>:<merge>,<mq> | none}
-gpgpu_cache:dl1PrefShared                 none # per-shader L1 data cache config  {<nsets>:<bsize>:<assoc>,<rep>:<wr>:<alloc>:<wr_alloc>,<mshr>:<N>:<merge>,<mq> | none}
-gmem_skip_L1D                          1 # global memory access skip L1D cache (implements -Xptxas -dlcm=cg, default=no skip)
-gpgpu_perfect_mem                      0 # enable perfect memory mode (no cache miss)
-n_regfile_gating_group                    4 # group of lanes that should be read/written together)
-gpgpu_clock_gated_reg_file                    0 # enable clock gated reg file for power calculations
-gpgpu_clock_gated_lanes                    0 # enable clock gated lanes for power calculations
-gpgpu_shader_registers                65536 # Number of registers per shader core. Limits number of concurrent CTAs. (default 8192)
-gpgpu_shader_cta                      32 # Maximum number of concurrent CTAs in shader (default 8)
-gpgpu_num_cta_barriers                   16 # Maximum number of named barriers per CTA (default 16)
-gpgpu_n_clusters                      28 # number of processing clusters
-gpgpu_n_cores_per_cluster                    1 # number of simd cores per cluster
-gpgpu_n_cluster_ejection_buffer_size                    8 # number of packets in ejection buffer
-gpgpu_n_ldst_response_buffer_size                    2 # number of response packets in ld/st unit ejection buffer
-gpgpu_shmem_size                   16384 # Size of shared memory per shader core (default 16kB)
-gpgpu_shmem_size                   98304 # Size of shared memory per shader core (default 16kB)
-gpgpu_shmem_size_PrefL1                16384 # Size of shared memory per shader core (default 16kB)
-gpgpu_shmem_size_PrefShared                16384 # Size of shared memory per shader core (default 16kB)
-gpgpu_shmem_num_banks                   32 # Number of banks in the shared memory in each shader core (default 16)
-gpgpu_shmem_limited_broadcast                    0 # Limit shared memory to do one broadcast per cycle (default on)
-gpgpu_shmem_warp_parts                    1 # Number of portions a warp is divided into for shared memory bank conflict check 
-gpgpu_warpdistro_shader                   -1 # Specify which shader core to collect the warp size distribution from
-gpgpu_warp_issue_shader                    0 # Specify which shader core to collect the warp issue distribution from
-gpgpu_local_mem_map                    1 # Mapping from local memory space address to simulated GPU physical address space (default = enabled)
-gpgpu_num_reg_banks                   32 # Number of register banks (default = 8)
-gpgpu_reg_bank_use_warp_id                    0 # Use warp ID in mapping registers to banks (default = off)
-gpgpu_operand_collector_num_units_sp                   20 # number of collector units (default = 4)
-gpgpu_operand_collector_num_units_sfu                    4 # number of collector units (default = 4)
-gpgpu_operand_collector_num_units_mem                    8 # number of collector units (default = 2)
-gpgpu_operand_collector_num_units_gen                    0 # number of collector units (default = 0)
-gpgpu_operand_collector_num_in_ports_sp                    4 # number of collector unit in ports (default = 1)
-gpgpu_operand_collector_num_in_ports_sfu                    1 # number of collector unit in ports (default = 1)
-gpgpu_operand_collector_num_in_ports_mem                    1 # number of collector unit in ports (default = 1)
-gpgpu_operand_collector_num_in_ports_gen                    0 # number of collector unit in ports (default = 0)
-gpgpu_operand_collector_num_out_ports_sp                    4 # number of collector unit in ports (default = 1)
-gpgpu_operand_collector_num_out_ports_sfu                    1 # number of collector unit in ports (default = 1)
-gpgpu_operand_collector_num_out_ports_mem                    1 # number of collector unit in ports (default = 1)
-gpgpu_operand_collector_num_out_ports_gen                    0 # number of collector unit in ports (default = 0)
-gpgpu_coalesce_arch                   13 # Coalescing arch (default = 13, anything else is off for now)
-gpgpu_num_sched_per_core                    2 # Number of warp schedulers per core
-gpgpu_max_insn_issue_per_warp                    2 # Max number of instructions that can be issued per warp in one cycle by scheduler
-gpgpu_simt_core_sim_order                    1 # Select the simulation order of cores in a cluster (0=Fix, 1=Round-Robin)
-gpgpu_pipeline_widths        4,1,1,4,1,1,6 # Pipeline widths ID_OC_SP,ID_OC_SFU,ID_OC_MEM,OC_EX_SP,OC_EX_SFU,OC_EX_MEM,EX_WB
-gpgpu_num_sp_units                     4 # Number of SP units (default=1)
-gpgpu_num_sfu_units                    1 # Number of SF units (default=1)
-gpgpu_num_mem_units                    1 # Number if ldst units (default=1) WARNING: not hooked up to anything
-gpgpu_scheduler                      gto # Scheduler configuration: < lrr | gto | two_level_active > If two_level_active:<num_active_warps>:<inner_prioritization>:<outer_prioritization>For complete list of prioritization values see shader.h enum scheduler_prioritization_typeDefault: gto
-gpgpu_concurrent_kernel_sm                    0 # Support concurrent kernels on a SM (default = disabled)
-tlb_size                            4096 # Number of tlb entries per SM.
-gpgpu_dram_scheduler                    1 # 0 = fifo, 1 = FR-FCFS (defaul)
-gpgpu_dram_partition_queues              8:8:8:8 # i2$:$2d:d2$:$2i
-l2_ideal                               0 # Use a ideal L2 cache that always hit
-gpgpu_cache:dl2     64:128:16,L:B:m:W:L,A:1024:1024,4:0,32 # unified banked L2 data cache config  {<nsets>:<bsize>:<assoc>,<rep>:<wr>:<alloc>:<wr_alloc>,<mshr>:<N>:<merge>,<mq>}
-gpgpu_cache:dl2_texture_only                    0 # L2 cache used for texture only
-gpgpu_n_mem                           11 # number of memory modules (e.g. memory controllers) in gpu
-gpgpu_n_sub_partition_per_mchannel                    2 # number of memory subpartition in each memory module
-gpgpu_n_mem_per_ctrlr                    1 # number of memory chips per memory controller
-gpgpu_memlatency_stat                   14 # track and display latency statistics 0x2 enables MC, 0x4 enables queue logs
-gpgpu_frfcfs_dram_sched_queue_size                   64 # 0 = unlimited (default); # entries per chip
-gpgpu_dram_return_queue_size                  116 # 0 = unlimited (default); # entries per chip
-gpgpu_dram_buswidth                    4 # default = 4 bytes (8 bytes per cycle at DDR)
-gpgpu_dram_burst_length                    8 # Burst length of each DRAM request (default = 4 data bus cycle)
-dram_data_command_freq_ratio                    4 # Frequency ratio between DRAM data bus and command bus (default = 2 times, i.e. DDR)
-gpgpu_dram_timing_opt nbk=16:CCD=2:RRD=6:RCD=12:RAS=28:RP=12:RC=40: CL=12:WL=4:CDLR=5:WR=12:nbkgrp=1:CCDL=0:RTPL=0 # DRAM timing parameters = {nbk:tCCD:tRRD:tRCD:tRAS:tRP:tRC:CL:WL:tCDLR:tWR:nbkgrp:tCCDL:tRTPL}
-rop_latency                          120 # ROP queue latency (default 85)
-dram_latency                         100 # DRAM latency (default 30)
-gpgpu_mem_addr_mapping dramid@8;00000000.00000000.00000000.00000000.0000RRRR.RRRRRRRR.RBBBCCCC.BCCSSSSS # mapping memory address to dram model {dramid@<start bit>;<memory address map>}
-gpgpu_mem_addr_test                    0 # run sweep test to check address mapping for aliased address
-gpgpu_mem_address_mask                    1 # 0 = old addressing mask, 1 = new addressing mask, 2 = new add. mask + flipped bank sel and chip sel bits
-gpuwattch_xml_file  gpuwattch_geforcegtx1080ti.xml # GPUWattch XML file
-power_simulation_enabled                    1 # Turn on power simulator (1=On, 0=Off)
-power_per_cycle_dump                    0 # Dump detailed power output each cycle
-power_trace_enabled                    0 # produce a file for the power trace (1=On, 0=Off)
-power_trace_zlevel                     6 # Compression level of the power trace output log (0=no comp, 9=highest)
-steady_power_levels_enabled                    0 # produce a file for the steady power levels (1=On, 0=Off)
-steady_state_definition                  8:4 # allowed deviation:number of samples
-gpgpu_max_cycle                        0 # terminates gpu simulation early (0 = no limit)
-gpgpu_max_insn                         0 # terminates gpu simulation early (0 = no limit)
-gpgpu_max_cta                          0 # terminates gpu simulation early (0 = no limit)
-gpgpu_runtime_stat                   500 # display runtime statistics such as dram utilization {<freq>:<flag>}
-liveness_message_freq                    1 # Minimum number of seconds between simulation liveness messages (0 = always print)
-gpgpu_flush_l1_cache                    0 # Flush L1 cache at the end of each kernel call
-gpgpu_flush_l2_cache                    0 # Flush L2 cache at the end of each kernel call
-gpgpu_deadlock_detect                    0 # Stop the simulation at deadlock (1=on (default), 0=off)
-gpgpu_ptx_instruction_classification                    0 # if enabled will classify ptx instruction types per kernel (Max 255 kernels now)
-gpgpu_ptx_sim_mode                     0 # Select between Performance (default) or Functional simulation (1)
-gpgpu_clock_domains 1481.0:2962.0:1481.0:2750.0 # Clock Domain Frequencies in MhZ {<Core Clock>:<ICNT Clock>:<L2 Clock>:<DRAM Clock>}
-gpgpu_max_concurrent_kernel                    8 # maximum kernels that can run concurrently on GPU
-gpgpu_cflog_interval                    0 # Interval between each snapshot in control flow logger
-visualizer_enabled                     0 # Turn on visualizer output (1=On, 0=Off)
-visualizer_outputfile                 NULL # Specifies the output log file for visualizer
-visualizer_zlevel                      6 # Compression level of the visualizer output log (0=no comp, 9=highest)
-trace_enabled                          0 # Turn on traces
-trace_components                    none # comma seperated list of traces to enable. Complete list found in trace_streams.tup. Default none
-trace_sampling_core                    0 # The core which is printed using CORE_DPRINTF. Default 0
-trace_sampling_memory_partition                   -1 # The memory partition which is printed using MEMPART_DPRINTF. Default -1 (i.e. all)
-gddr_size                         3.64MB # Size of GDDR in MB/GB.(GLOBAL_HEAP_START, GLOBAL_HEAP_START + gddr_size) would be used for unmanged memory, (GLOBAL_HEAP_START + gddr_size, GLOBAL_HEAP_START + gddr_size*2) would be used for managed memory. 
-page_table_walk_latency                  100 # Average page table walk latency (in core cycle).
-eviction_policy                   random # Memory eviction policy: lru or random.
-percentage_of_free_page_buffer                    0 # Percentage of free page buffer to trigger the page eviction.
-page_size                            4KB # GDDR page size, only 4KB/2MB avaliable.
-pcie_bandwith                   16.0GB/s # PCI-e bandwith per direction, in GB/s.
-sim_prof_enable                        1 # Enable gpgpu-sim profiler
-hardware_prefetch                      1 # Enable gpgpu-sim hardware prefetcher
-page_fault_latency                 66645 # Average fault latency (in core cycle).
-enable_accurate_simulation                    0 # Enable page fault functional simulation.
-enable_ptx_file_line_stats                    1 # Turn on PTX source line statistic profiling. (1 = On)
-ptx_line_stats_filename gpgpu_inst_stats.txt # Output file for PTX source line statistics.
-gpgpu_kernel_launch_latency               222150 # Kernel launch latency in cycles. Default: 0
-gpgpu_cdp_enabled                      0 # Turn on CDP
-save_embedded_ptx                      0 # saves ptx files embedded in binary as <n>.ptx
-keep                                   0 # keep intermediate files created by GPGPU-Sim when interfacing with external programs
-gpgpu_ptx_save_converted_ptxplus                    0 # Saved converted ptxplus to a file
-ptx_opcode_latency_int         4,13,4,5,145 # Opcode latencies for integers <ADD,MAX,MUL,MAD,DIV>Default 1,1,19,25,145
-ptx_opcode_latency_fp          4,13,4,5,39 # Opcode latencies for single precision floating points <ADD,MAX,MUL,MAD,DIV>Default 1,1,1,1,30
-ptx_opcode_latency_dp         8,19,8,8,330 # Opcode latencies for double precision floating points <ADD,MAX,MUL,MAD,DIV>Default 8,8,8,8,335
-ptx_opcode_initiation_int            1,2,2,2,8 # Opcode initiation intervals for integers <ADD,MAX,MUL,MAD,DIV>Default 1,1,4,4,32
-ptx_opcode_initiation_fp            1,2,1,1,4 # Opcode initiation intervals for single precision floating points <ADD,MAX,MUL,MAD,DIV>Default 1,1,1,1,5
-ptx_opcode_initiation_dp          1,2,1,1,130 # Opcode initiation intervals for double precision floating points <ADD,MAX,MUL,MAD,DIV>Default 8,8,8,8,130
-cdp_latency         7200,8000,100,12000,1600 # CDP API latency <cudaStreamCreateWithFlags, cudaGetParameterBufferV2_init_perWarp, cudaGetParameterBufferV2_perKernel, cudaLaunchDeviceV2_init_perWarp, cudaLaunchDevicV2_perKernel>Default 7200,8000,100,12000,1600
DRAM Timing Options:
nbk                                    16 # number of banks
CCD                                     2 # column to column delay
RRD                                     6 # minimal delay between activation of rows in different banks
RCD                                    12 # row to column delay
RAS                                    28 # time needed to activate row
RP                                     12 # time needed to precharge (deactivate) row
RC                                     40 # row cycle time
CDLR                                    5 # switching from write to read (changes tWTR)
WR                                     12 # last data-in to row precharge
CL                                     12 # CAS latency
WL                                      4 # Write latency
nbkgrp                                  1 # number of bank groups
CCDL                                    0 # column to column delay between accesses to different bank groups
RTPL                                    0 # read to precharge delay between accesses to different bank groups
Total number of memory sub partition = 22
addr_dec_mask[CHIP]  = 0000000000000000 	high:64 low:0
addr_dec_mask[BK]    = 0000000000007080 	high:15 low:7
addr_dec_mask[ROW]   = 000000000fff8000 	high:28 low:15
addr_dec_mask[COL]   = 0000000000000f7f 	high:12 low:0
addr_dec_mask[BURST] = 000000000000001f 	high:5 low:0
sub_partition_id_mask = 0000000000000080
GPGPU-Sim uArch: clock freqs: 1481000000.000000:2962000000.000000:1481000000.000000:2750000000.000000
GPGPU-Sim uArch: clock periods: 0.00000000067521944632:0.00000000033760972316:0.00000000067521944632:0.00000000036363636364
*** Initializing Memory Statistics ***
GPGPU-Sim uArch: interconnect node map (shaderID+MemID to icntID)
GPGPU-Sim uArch: Memory nodes ID start from index: 28
GPGPU-Sim uArch:    0   1   2   3   4   5   6
GPGPU-Sim uArch:    7   8   9  10  11  12  13
GPGPU-Sim uArch:   14  15  16  17  18  19  20
GPGPU-Sim uArch:   21  22  23  24  25  26  27
GPGPU-Sim uArch:   28  29  30  31  32  33  34
GPGPU-Sim uArch:   35  36  37  38  39  40  41
GPGPU-Sim uArch:   42  43  44  45  46  47  48
GPGPU-Sim uArch:   49
GPGPU-Sim uArch: interconnect node reverse map (icntID to shaderID+MemID)
GPGPU-Sim uArch: Memory nodes start from ID: 28
GPGPU-Sim uArch:    0   1   2   3   4   5   6
GPGPU-Sim uArch:    7   8   9  10  11  12  13
GPGPU-Sim uArch:   14  15  16  17  18  19  20
GPGPU-Sim uArch:   21  22  23  24  25  26  27
GPGPU-Sim uArch:   28  29  30  31  32  33  34
GPGPU-Sim uArch:   35  36  37  38  39  40  41
GPGPU-Sim uArch:   42  43  44  45  46  47  48
GPGPU-Sim uArch:   49
249a3da1d32700c948fc9105d710b42a  /home/gpuser/Desktop/gpgpu-sim_UVM/benchmarks/Managed/stencil/main
GPGPU-Sim uArch: performance model initialization complete.
GPGPU-Sim PTX: __cudaRegisterFatBinary, fat_cubin_handle = 1, filename=default
self exe links to: /home/gpuser/Desktop/gpgpu-sim_UVM/benchmarks/Managed/stencil/main
Running md5sum using "md5sum /home/gpuser/Desktop/gpgpu-sim_UVM/benchmarks/Managed/stencil/main "
Parsing file _cuobjdump_complete_output_kh3Tii
######### cuobjdump parser ########
## Adding new section ELF
Adding arch: sm_20
Adding identifier: default
## Adding new section ELF
Adding arch: sm_20
Adding identifier: default
## Adding new section PTX
Adding ptx filename: _cuobjdump_1.ptx
Adding arch: sm_20
Adding identifier: default
## Adding new section ELF
Adding arch: sm_20
Adding identifier: default
## Adding new section PTX
Adding ptx filename: _cuobjdump_2.ptx
Adding arch: sm_20
Adding identifier: default
Done parsing!!!
GPGPU-Sim PTX: __cudaRegisterFatBinary, fat_cubin_handle = 2, filename=default
GPGPU-Sim PTX: __cudaRegisterFunction _Z24block2D_hybrid_coarsen_xffPfS_iii : hostFun 0x0x401496, fat_cubin_handle = 2
GPGPU-Sim PTX: allocating shared region for "sh_A0" from 0x0 to 0x0 (shared memory space)
GPGPU-Sim PTX: instruction assembly for function '_Z24block2D_hybrid_coarsen_xffPfS_iii'...   done.
GPGPU-Sim PTX: finding reconvergence points for '_Z24block2D_hybrid_coarsen_xffPfS_iii'...
GPGPU-Sim PTX: Finding dominators for '_Z24block2D_hybrid_coarsen_xffPfS_iii'...
GPGPU-Sim PTX: Finding immediate dominators for '_Z24block2D_hybrid_coarsen_xffPfS_iii'...
GPGPU-Sim PTX: Finding postdominators for '_Z24block2D_hybrid_coarsen_xffPfS_iii'...
GPGPU-Sim PTX: Finding immediate postdominators for '_Z24block2D_hybrid_coarsen_xffPfS_iii'...
GPGPU-Sim PTX: pre-decoding instructions for '_Z24block2D_hybrid_coarsen_xffPfS_iii'...
GPGPU-Sim PTX: reconvergence points for _Z24block2D_hybrid_coarsen_xffPfS_iii...
GPGPU-Sim PTX:  1 (potential) branch divergence @  PC=0x170 (_2.ptx:82) @!%p13 bra BB0_2;
GPGPU-Sim PTX:    immediate post dominator      @  PC=0x200 (_2.ptx:104) mov.f32 %f64, %f69;
GPGPU-Sim PTX:  2 (potential) branch divergence @  PC=0x178 (_2.ptx:83) bra.uni BB0_1;
GPGPU-Sim PTX:    immediate post dominator      @  PC=0x180 (_2.ptx:86) mad.lo.s32 %r33, %r3, %r6, %r1;
GPGPU-Sim PTX:  3 (potential) branch divergence @  PC=0x228 (_2.ptx:109) @!%p16 bra BB0_4;
GPGPU-Sim PTX:    immediate post dominator      @  PC=0x2b0 (_2.ptx:130) mov.f32 %f67, %f68;
GPGPU-Sim PTX:  4 (potential) branch divergence @  PC=0x230 (_2.ptx:110) bra.uni BB0_3;
GPGPU-Sim PTX:    immediate post dominator      @  PC=0x238 (_2.ptx:113) mad.lo.s32 %r58, %r3, %r6, %r2;
GPGPU-Sim PTX:  5 (potential) branch divergence @  PC=0x2d0 (_2.ptx:134) @%p17 bra BB0_33;
GPGPU-Sim PTX:    immediate post dominator      @  PC=0x868 (_2.ptx:370) ret;
GPGPU-Sim PTX:  6 (potential) branch divergence @  PC=0x300 (_2.ptx:143) @!%p13 bra BB0_8;
GPGPU-Sim PTX:    immediate post dominator      @  PC=0x348 (_2.ptx:156) @!%p5 bra BB0_19;
GPGPU-Sim PTX:  7 (potential) branch divergence @  PC=0x308 (_2.ptx:144) bra.uni BB0_7;
GPGPU-Sim PTX:    immediate post dominator      @  PC=0x310 (_2.ptx:147) add.s32 %r75, %r273, 1;
GPGPU-Sim PTX:  8 (potential) branch divergence @  PC=0x348 (_2.ptx:156) @!%p5 bra BB0_19;
GPGPU-Sim PTX:    immediate post dominator      @  PC=0x590 (_2.ptx:251) @!%p16 bra BB0_21;
GPGPU-Sim PTX:  9 (potential) branch divergence @  PC=0x350 (_2.ptx:157) bra.uni BB0_9;
GPGPU-Sim PTX:    immediate post dominator      @  PC=0x358 (_2.ptx:160) add.s32 %r89, %r13, -1;
GPGPU-Sim PTX: 10 (potential) branch divergence @  PC=0x368 (_2.ptx:162) @%p21 bra BB0_11;
GPGPU-Sim PTX:    immediate post dominator      @  PC=0x3e8 (_2.ptx:184) setp.eq.s32%p22, %r15, 0;
GPGPU-Sim PTX: 11 (potential) branch divergence @  PC=0x370 (_2.ptx:163) bra.uni BB0_10;
GPGPU-Sim PTX:    immediate post dominator      @  PC=0x3b8 (_2.ptx:176) shl.b32 %r92, %r11, 1;
GPGPU-Sim PTX: 12 (potential) branch divergence @  PC=0x3b0 (_2.ptx:173) bra.uni BB0_12;
GPGPU-Sim PTX:    immediate post dominator      @  PC=0x3e8 (_2.ptx:184) setp.eq.s32%p22, %r15, 0;
GPGPU-Sim PTX: 13 (potential) branch divergence @  PC=0x3f0 (_2.ptx:185) @%p22 bra BB0_14;
GPGPU-Sim PTX:    immediate post dominator      @  PC=0x470 (_2.ptx:207) setp.eq.s32%p23, %r12, 0;
GPGPU-Sim PTX: 14 (potential) branch divergence @  PC=0x3f8 (_2.ptx:186) bra.uni BB0_13;
GPGPU-Sim PTX:    immediate post dominator      @  PC=0x440 (_2.ptx:199) shl.b32 %r111, %r11, 1;
GPGPU-Sim PTX: 15 (potential) branch divergence @  PC=0x438 (_2.ptx:196) bra.uni BB0_15;
GPGPU-Sim PTX:    immediate post dominator      @  PC=0x470 (_2.ptx:207) setp.eq.s32%p23, %r12, 0;
GPGPU-Sim PTX: 16 (potential) branch divergence @  PC=0x478 (_2.ptx:208) @%p23 bra BB0_17;
GPGPU-Sim PTX:    immediate post dominator      @  PC=0x4f0 (_2.ptx:229) mad.lo.s32 %r149, %r273, %r7, %r3;
GPGPU-Sim PTX: 17 (potential) branch divergence @  PC=0x480 (_2.ptx:209) bra.uni BB0_16;
GPGPU-Sim PTX:    immediate post dominator      @  PC=0x4c8 (_2.ptx:222) shl.b32 %r129, %r11, 1;
GPGPU-Sim PTX: 18 (potential) branch divergence @  PC=0x4c0 (_2.ptx:219) bra.uni BB0_18;
GPGPU-Sim PTX:    immediate post dominator      @  PC=0x4f0 (_2.ptx:229) mad.lo.s32 %r149, %r273, %r7, %r3;
GPGPU-Sim PTX: 19 (potential) branch divergence @  PC=0x590 (_2.ptx:251) @!%p16 bra BB0_21;
GPGPU-Sim PTX:    immediate post dominator      @  PC=0x5d8 (_2.ptx:264) @!%p4 bra BB0_32;
GPGPU-Sim PTX: 20 (potential) branch divergence @  PC=0x598 (_2.ptx:252) bra.uni BB0_20;
GPGPU-Sim PTX:    immediate post dominator      @  PC=0x5a0 (_2.ptx:255) add.s32 %r168, %r273, 1;
GPGPU-Sim PTX: 21 (potential) branch divergence @  PC=0x5d8 (_2.ptx:264) @!%p4 bra BB0_32;
GPGPU-Sim PTX:    immediate post dominator      @  PC=0x820 (_2.ptx:359) bar.sync 0;
GPGPU-Sim PTX: 22 (potential) branch divergence @  PC=0x5e0 (_2.ptx:265) bra.uni BB0_22;
GPGPU-Sim PTX:    immediate post dominator      @  PC=0x5e8 (_2.ptx:268) add.s32 %r183, %r13, -1;
GPGPU-Sim PTX: 23 (potential) branch divergence @  PC=0x5f8 (_2.ptx:270) @%p27 bra BB0_24;
GPGPU-Sim PTX:    immediate post dominator      @  PC=0x678 (_2.ptx:292) setp.eq.s32%p28, %r15, 0;
GPGPU-Sim PTX: 24 (potential) branch divergence @  PC=0x600 (_2.ptx:271) bra.uni BB0_23;
GPGPU-Sim PTX:    immediate post dominator      @  PC=0x648 (_2.ptx:284) shl.b32 %r186, %r11, 1;
GPGPU-Sim PTX: 25 (potential) branch divergence @  PC=0x640 (_2.ptx:281) bra.uni BB0_25;
GPGPU-Sim PTX:    immediate post dominator      @  PC=0x678 (_2.ptx:292) setp.eq.s32%p28, %r15, 0;
GPGPU-Sim PTX: 26 (potential) branch divergence @  PC=0x680 (_2.ptx:293) @%p28 bra BB0_27;
GPGPU-Sim PTX:    immediate post dominator      @  PC=0x700 (_2.ptx:315) shl.b32 %r228, %r11, 1;
GPGPU-Sim PTX: 27 (potential) branch divergence @  PC=0x688 (_2.ptx:294) bra.uni BB0_26;
GPGPU-Sim PTX:    immediate post dominator      @  PC=0x6d0 (_2.ptx:307) shl.b32 %r207, %r11, 1;
GPGPU-Sim PTX: 28 (potential) branch divergence @  PC=0x6c8 (_2.ptx:304) bra.uni BB0_28;
GPGPU-Sim PTX:    immediate post dominator      @  PC=0x700 (_2.ptx:315) shl.b32 %r228, %r11, 1;
GPGPU-Sim PTX: 29 (potential) branch divergence @  PC=0x718 (_2.ptx:318) @%p29 bra BB0_30;
GPGPU-Sim PTX:    immediate post dominator      @  PC=0x788 (_2.ptx:338) mad.lo.s32 %r253, %r273, %r7, %r3;
GPGPU-Sim PTX: 30 (potential) branch divergence @  PC=0x720 (_2.ptx:319) bra.uni BB0_29;
GPGPU-Sim PTX:    immediate post dominator      @  PC=0x768 (_2.ptx:332) mad.lo.s32 %r235, %r228, %r15, %r19;
GPGPU-Sim PTX: 31 (potential) branch divergence @  PC=0x760 (_2.ptx:329) bra.uni BB0_31;
GPGPU-Sim PTX:    immediate post dominator      @  PC=0x788 (_2.ptx:338) mad.lo.s32 %r253, %r273, %r7, %r3;
GPGPU-Sim PTX: 32 (potential) branch divergence @  PC=0x860 (_2.ptx:367) @%p30 bra BB0_6;
GPGPU-Sim PTX:    immediate post dominator      @  PC=0x868 (_2.ptx:370) ret;
GPGPU-Sim PTX: ... end of reconvergence points for _Z24block2D_hybrid_coarsen_xffPfS_iii
GPGPU-Sim PTX: ... done pre-decoding instructions for '_Z24block2D_hybrid_coarsen_xffPfS_iii'.
GPGPU-Sim PTX: finished parsing EMBEDDED .ptx file _2.ptx
Adding _cuobjdump_1.ptx with cubin handle 2
GPGPU-Sim PTX: extracting embedded .ptx to temporary file "_ptx_GLy3z6"
Running: cat _ptx_GLy3z6 | sed 's/.version 1.5/.version 1.4/' | sed 's/, texmode_independent//' | sed 's/\(\.extern \.const\[1\] .b8 \w\+\)\[\]/\1\[1\]/' | sed 's/const\[.\]/const\[0\]/g' > _ptx2_iEhgRU
GPGPU-Sim PTX: generating ptxinfo using "$CUDA_INSTALL_PATH/bin/ptxas --gpu-name=sm_20 -v _ptx2_iEhgRU --output-file  /dev/null 2> _ptx_GLy3z6info"
GPGPU-Sim PTX: Kernel '_Z24block2D_hybrid_coarsen_xffPfS_iii' : regs=20, lmem=0, smem=0, cmem=68
GPGPU-Sim PTX: removing ptxinfo using "rm -f _ptx_GLy3z6 _ptx2_iEhgRU _ptx_GLy3z6info"
GPGPU-Sim PTX: loading globals with explicit initializers... 
GPGPU-Sim PTX: finished loading globals (0 bytes total).
GPGPU-Sim PTX: loading constants with explicit initializers...  done.
CUDA accelerated 7 points stencil codes****
Original version by Li-Wen Chang <lchang20@illinois.edu> and I-Jui Sung<sung10@illinois.edu>
This version maintained by Chris Rodrigues  ***********

GPGPU-Sim PTX: cudaLaunch for 0x0x401496 (mode=performance simulation) on stream 0
GPGPU-Sim PTX: pushing kernel '_Z24block2D_hybrid_coarsen_xffPfS_iii' to stream 0, gridDim= (2,32,1) blockDim = (32,4,1) 
GPGPU-Sim uArch: Shader 1 bind to kernel 1 '_Z24block2D_hybrid_coarsen_xffPfS_iii'
GPGPU-Sim uArch: CTA/core = 16, limited by: threads
GPGPU-Sim uArch: Shader 2 bind to kernel 1 '_Z24block2D_hybrid_coarsen_xffPfS_iii'
GPGPU-Sim uArch: Shader 3 bind to kernel 1 '_Z24block2D_hybrid_coarsen_xffPfS_iii'
GPGPU-Sim uArch: Shader 4 bind to kernel 1 '_Z24block2D_hybrid_coarsen_xffPfS_iii'
GPGPU-Sim uArch: Shader 5 bind to kernel 1 '_Z24block2D_hybrid_coarsen_xffPfS_iii'
GPGPU-Sim uArch: Shader 6 bind to kernel 1 '_Z24block2D_hybrid_coarsen_xffPfS_iii'
GPGPU-Sim uArch: Shader 7 bind to kernel 1 '_Z24block2D_hybrid_coarsen_xffPfS_iii'
GPGPU-Sim uArch: Shader 8 bind to kernel 1 '_Z24block2D_hybrid_coarsen_xffPfS_iii'
GPGPU-Sim uArch: Shader 9 bind to kernel 1 '_Z24block2D_hybrid_coarsen_xffPfS_iii'
GPGPU-Sim uArch: Shader 10 bind to kernel 1 '_Z24block2D_hybrid_coarsen_xffPfS_iii'
GPGPU-Sim uArch: Shader 11 bind to kernel 1 '_Z24block2D_hybrid_coarsen_xffPfS_iii'
GPGPU-Sim uArch: Shader 12 bind to kernel 1 '_Z24block2D_hybrid_coarsen_xffPfS_iii'
GPGPU-Sim uArch: Shader 13 bind to kernel 1 '_Z24block2D_hybrid_coarsen_xffPfS_iii'
GPGPU-Sim uArch: Shader 14 bind to kernel 1 '_Z24block2D_hybrid_coarsen_xffPfS_iii'
GPGPU-Sim uArch: Shader 15 bind to kernel 1 '_Z24block2D_hybrid_coarsen_xffPfS_iii'
GPGPU-Sim uArch: Shader 16 bind to kernel 1 '_Z24block2D_hybrid_coarsen_xffPfS_iii'
GPGPU-Sim uArch: Shader 17 bind to kernel 1 '_Z24block2D_hybrid_coarsen_xffPfS_iii'
GPGPU-Sim uArch: Shader 18 bind to kernel 1 '_Z24block2D_hybrid_coarsen_xffPfS_iii'
GPGPU-Sim uArch: Shader 19 bind to kernel 1 '_Z24block2D_hybrid_coarsen_xffPfS_iii'
GPGPU-Sim uArch: Shader 20 bind to kernel 1 '_Z24block2D_hybrid_coarsen_xffPfS_iii'
GPGPU-Sim uArch: Shader 21 bind to kernel 1 '_Z24block2D_hybrid_coarsen_xffPfS_iii'
GPGPU-Sim uArch: Shader 22 bind to kernel 1 '_Z24block2D_hybrid_coarsen_xffPfS_iii'
GPGPU-Sim uArch: Shader 23 bind to kernel 1 '_Z24block2D_hybrid_coarsen_xffPfS_iii'
GPGPU-Sim uArch: Shader 24 bind to kernel 1 '_Z24block2D_hybrid_coarsen_xffPfS_iii'
GPGPU-Sim uArch: Shader 25 bind to kernel 1 '_Z24block2D_hybrid_coarsen_xffPfS_iii'
GPGPU-Sim uArch: Shader 26 bind to kernel 1 '_Z24block2D_hybrid_coarsen_xffPfS_iii'
GPGPU-Sim uArch: Shader 27 bind to kernel 1 '_Z24block2D_hybrid_coarsen_xffPfS_iii'
GPGPU-Sim uArch: Shader 0 bind to kernel 1 '_Z24block2D_hybrid_coarsen_xffPfS_iii'
Destroy streams for kernel 1: size 0
kernel_name = _Z24block2D_hybrid_coarsen_xffPfS_iii 
kernel_launch_uid = 1 
gpu_sim_cycle = 989781
gpu_sim_insn = 28848876
gpu_ipc =      29.1467
gpu_tot_sim_cycle = 1211931
gpu_tot_sim_insn = 28848876
gpu_tot_ipc =      23.8041
gpu_tot_issued_cta = 64
max_total_param_size = 0
gpu_stall_dramfull = 23272
gpu_stall_icnt2sh    = 2084
partiton_reqs_in_parallel = 21751910
partiton_reqs_in_parallel_total    = 0
partiton_level_parallism =      21.9765
partiton_level_parallism_total  =      17.9481
partiton_reqs_in_parallel_util = 21751910
partiton_reqs_in_parallel_util_total    = 0
gpu_sim_cycle_parition_util = 989098
gpu_tot_sim_cycle_parition_util    = 0
partiton_level_parallism_util =      21.9917
partiton_level_parallism_util_total  =      21.9917
partiton_replys_in_parallel = 47008
partiton_replys_in_parallel_total    = 0
L2_BW  =       4.5016 GB/Sec
L2_BW_total  =       3.6765 GB/Sec
gpu_total_sim_rate=18806

========= Core cache stats =========
L1I_cache:
	L1I_total_cache_accesses = 579228
	L1I_total_cache_misses = 3182
	L1I_total_cache_miss_rate = 0.0055
	L1I_total_cache_pending_hits = 0
	L1I_total_cache_reservation_fails = 0
L1D_cache:
	L1D_cache_core[0]: Access = 0, Miss = 0, Miss_rate = -nan, Pending_hits = 0, Reservation_fails = 0
	L1D_cache_core[1]: Access = 0, Miss = 0, Miss_rate = -nan, Pending_hits = 0, Reservation_fails = 0
	L1D_cache_core[2]: Access = 0, Miss = 0, Miss_rate = -nan, Pending_hits = 0, Reservation_fails = 0
	L1D_cache_core[3]: Access = 0, Miss = 0, Miss_rate = -nan, Pending_hits = 0, Reservation_fails = 0
	L1D_cache_core[4]: Access = 0, Miss = 0, Miss_rate = -nan, Pending_hits = 0, Reservation_fails = 0
	L1D_cache_core[5]: Access = 0, Miss = 0, Miss_rate = -nan, Pending_hits = 0, Reservation_fails = 0
	L1D_cache_core[6]: Access = 0, Miss = 0, Miss_rate = -nan, Pending_hits = 0, Reservation_fails = 0
	L1D_cache_core[7]: Access = 0, Miss = 0, Miss_rate = -nan, Pending_hits = 0, Reservation_fails = 0
	L1D_cache_core[8]: Access = 0, Miss = 0, Miss_rate = -nan, Pending_hits = 0, Reservation_fails = 0
	L1D_cache_core[9]: Access = 0, Miss = 0, Miss_rate = -nan, Pending_hits = 0, Reservation_fails = 0
	L1D_cache_core[10]: Access = 0, Miss = 0, Miss_rate = -nan, Pending_hits = 0, Reservation_fails = 0
	L1D_cache_core[11]: Access = 0, Miss = 0, Miss_rate = -nan, Pending_hits = 0, Reservation_fails = 0
	L1D_cache_core[12]: Access = 0, Miss = 0, Miss_rate = -nan, Pending_hits = 0, Reservation_fails = 0
	L1D_cache_core[13]: Access = 0, Miss = 0, Miss_rate = -nan, Pending_hits = 0, Reservation_fails = 0
	L1D_cache_core[14]: Access = 0, Miss = 0, Miss_rate = -nan, Pending_hits = 0, Reservation_fails = 0
	L1D_cache_core[15]: Access = 0, Miss = 0, Miss_rate = -nan, Pending_hits = 0, Reservation_fails = 0
	L1D_cache_core[16]: Access = 0, Miss = 0, Miss_rate = -nan, Pending_hits = 0, Reservation_fails = 0
	L1D_cache_core[17]: Access = 0, Miss = 0, Miss_rate = -nan, Pending_hits = 0, Reservation_fails = 0
	L1D_cache_core[18]: Access = 0, Miss = 0, Miss_rate = -nan, Pending_hits = 0, Reservation_fails = 0
	L1D_cache_core[19]: Access = 0, Miss = 0, Miss_rate = -nan, Pending_hits = 0, Reservation_fails = 0
	L1D_cache_core[20]: Access = 0, Miss = 0, Miss_rate = -nan, Pending_hits = 0, Reservation_fails = 0
	L1D_cache_core[21]: Access = 0, Miss = 0, Miss_rate = -nan, Pending_hits = 0, Reservation_fails = 0
	L1D_cache_core[22]: Access = 0, Miss = 0, Miss_rate = -nan, Pending_hits = 0, Reservation_fails = 0
	L1D_cache_core[23]: Access = 0, Miss = 0, Miss_rate = -nan, Pending_hits = 0, Reservation_fails = 0
	L1D_cache_core[24]: Access = 0, Miss = 0, Miss_rate = -nan, Pending_hits = 0, Reservation_fails = 0
	L1D_cache_core[25]: Access = 0, Miss = 0, Miss_rate = -nan, Pending_hits = 0, Reservation_fails = 0
	L1D_cache_core[26]: Access = 0, Miss = 0, Miss_rate = -nan, Pending_hits = 0, Reservation_fails = 0
	L1D_cache_core[27]: Access = 0, Miss = 0, Miss_rate = -nan, Pending_hits = 0, Reservation_fails = 0
	L1D_total_cache_accesses = 0
	L1D_total_cache_misses = 0
	L1D_total_cache_pending_hits = 0
	L1D_total_cache_reservation_fails = 0
	L1D_cache_data_port_util = 0.000
	L1D_cache_fill_port_util = 0.000
L1C_cache:
	L1C_total_cache_accesses = 1792
	L1C_total_cache_misses = 1632
	L1C_total_cache_miss_rate = 0.9107
	L1C_total_cache_pending_hits = 0
	L1C_total_cache_reservation_fails = 1444
L1T_cache:
	L1T_total_cache_accesses = 0
	L1T_total_cache_misses = 0
	L1T_total_cache_pending_hits = 0
	L1T_total_cache_reservation_fails = 0

Total_core_cache_stats:
	Total_core_cache_stats_breakdown[GLOBAL_ACC_R][HIT] = 0
	Total_core_cache_stats_breakdown[GLOBAL_ACC_R][HIT_RESERVED] = 0
	Total_core_cache_stats_breakdown[GLOBAL_ACC_R][MISS] = 0
	Total_core_cache_stats_breakdown[GLOBAL_ACC_R][RESERVATION_FAIL] = 0
	Total_core_cache_stats_breakdown[LOCAL_ACC_R][HIT] = 0
	Total_core_cache_stats_breakdown[LOCAL_ACC_R][HIT_RESERVED] = 0
	Total_core_cache_stats_breakdown[LOCAL_ACC_R][MISS] = 0
	Total_core_cache_stats_breakdown[LOCAL_ACC_R][RESERVATION_FAIL] = 0
	Total_core_cache_stats_breakdown[CONST_ACC_R][HIT] = 160
	Total_core_cache_stats_breakdown[CONST_ACC_R][HIT_RESERVED] = 0
	Total_core_cache_stats_breakdown[CONST_ACC_R][MISS] = 1632
	Total_core_cache_stats_breakdown[CONST_ACC_R][RESERVATION_FAIL] = 1444
	Total_core_cache_stats_breakdown[TEXTURE_ACC_R][HIT] = 0
	Total_core_cache_stats_breakdown[TEXTURE_ACC_R][HIT_RESERVED] = 0
	Total_core_cache_stats_breakdown[TEXTURE_ACC_R][MISS] = 0
	Total_core_cache_stats_breakdown[TEXTURE_ACC_R][RESERVATION_FAIL] = 0
	Total_core_cache_stats_breakdown[GLOBAL_ACC_W][HIT] = 0
	Total_core_cache_stats_breakdown[GLOBAL_ACC_W][HIT_RESERVED] = 0
	Total_core_cache_stats_breakdown[GLOBAL_ACC_W][MISS] = 0
	Total_core_cache_stats_breakdown[GLOBAL_ACC_W][RESERVATION_FAIL] = 0
	Total_core_cache_stats_breakdown[LOCAL_ACC_W][HIT] = 0
	Total_core_cache_stats_breakdown[LOCAL_ACC_W][HIT_RESERVED] = 0
	Total_core_cache_stats_breakdown[LOCAL_ACC_W][MISS] = 0
	Total_core_cache_stats_breakdown[LOCAL_ACC_W][RESERVATION_FAIL] = 0
	Total_core_cache_stats_breakdown[L1_WRBK_ACC][HIT] = 0
	Total_core_cache_stats_breakdown[L1_WRBK_ACC][HIT_RESERVED] = 0
	Total_core_cache_stats_breakdown[L1_WRBK_ACC][MISS] = 0
	Total_core_cache_stats_breakdown[L1_WRBK_ACC][RESERVATION_FAIL] = 0
	Total_core_cache_stats_breakdown[L2_WRBK_ACC][HIT] = 0
	Total_core_cache_stats_breakdown[L2_WRBK_ACC][HIT_RESERVED] = 0
	Total_core_cache_stats_breakdown[L2_WRBK_ACC][MISS] = 0
	Total_core_cache_stats_breakdown[L2_WRBK_ACC][RESERVATION_FAIL] = 0
	Total_core_cache_stats_breakdown[INST_ACC_R][HIT] = 576046
	Total_core_cache_stats_breakdown[INST_ACC_R][HIT_RESERVED] = 0
	Total_core_cache_stats_breakdown[INST_ACC_R][MISS] = 3182
	Total_core_cache_stats_breakdown[INST_ACC_R][RESERVATION_FAIL] = 0
	Total_core_cache_stats_breakdown[L1_WR_ALLOC_R][HIT] = 0
	Total_core_cache_stats_breakdown[L1_WR_ALLOC_R][HIT_RESERVED] = 0
	Total_core_cache_stats_breakdown[L1_WR_ALLOC_R][MISS] = 0
	Total_core_cache_stats_breakdown[L1_WR_ALLOC_R][RESERVATION_FAIL] = 0
	Total_core_cache_stats_breakdown[L2_WR_ALLOC_R][HIT] = 0
	Total_core_cache_stats_breakdown[L2_WR_ALLOC_R][HIT_RESERVED] = 0
	Total_core_cache_stats_breakdown[L2_WR_ALLOC_R][MISS] = 0
	Total_core_cache_stats_breakdown[L2_WR_ALLOC_R][RESERVATION_FAIL] = 0
	Total_core_cache_stats_breakdown[CONST_ACC_R][TOTAL_ACCESS] = 1792
	Total_core_cache_stats_breakdown[INST_ACC_R][TOTAL_ACCESS] = 579228
Shader 0 warp_id issue ditsribution:
warp_id:
0, 1, 2, 3, 4, 5, 6, 7, 
distro:
4828, 4637, 4648, 4823, 4828, 4641, 4648, 4824, 
gpgpu_n_tot_thrd_icount = 33319424
gpgpu_n_tot_w_icount = 1041232
gpgpu_n_stall_shd_mem = 56720
gpgpu_n_mem_read_local = 0
gpgpu_n_mem_write_local = 0
gpgpu_n_mem_read_global = 31384
gpgpu_n_mem_write_global = 15120
gpgpu_n_mem_texture = 0
gpgpu_n_mem_const = 28
gpgpu_n_load_insn  = 766208
gpgpu_n_store_insn = 476280
gpgpu_n_shmem_insn = 3155288
gpgpu_n_tex_insn = 0
gpgpu_n_const_mem_insn = 0
gpgpu_n_param_mem_insn = 57344
gpgpu_n_shmem_bkconflict = 0
gpgpu_n_cache_bkconflict = 0
gpgpu_n_intrawarp_mshr_merge = 0
gpgpu_n_cmem_portconflict = 1444
gpgpu_stall_shd_mem[c_mem][bk_conf] = 1444
gpgpu_stall_shd_mem[c_mem][mshr_rc] = 0
gpgpu_stall_shd_mem[c_mem][icnt_rc] = 0
gpgpu_stall_shd_mem[c_mem][data_port_stall] = 0
gpgpu_stall_shd_mem[t_mem][mshr_rc] = 0
gpgpu_stall_shd_mem[t_mem][icnt_rc] = 0
gpgpu_stall_shd_mem[t_mem][data_port_stall] = 0
gpgpu_stall_shd_mem[s_mem][bk_conf] = 0
gpgpu_stall_shd_mem[gl_mem][bk_conf] = 0
gpgpu_stall_shd_mem[gl_mem][coal_stall] = 6
gpgpu_stall_shd_mem[gl_mem][data_port_stall] = 0
gpgpu_stall_shd_mem[g_mem_ld][mshr_rc] = 0
gpgpu_stall_shd_mem[g_mem_ld][icnt_rc] = 55270
gpgpu_stall_shd_mem[g_mem_ld][wb_icnt_rc] = 0
gpgpu_stall_shd_mem[g_mem_ld][wb_rsrv_fail] = 0
gpgpu_stall_shd_mem[g_mem_st][mshr_rc] = 0
gpgpu_stall_shd_mem[g_mem_st][icnt_rc] = 0
gpgpu_stall_shd_mem[g_mem_st][wb_icnt_rc] = 0
gpgpu_stall_shd_mem[g_mem_st][wb_rsrv_fail] = 0
gpgpu_stall_shd_mem[l_mem_ld][mshr_rc] = 0
gpgpu_stall_shd_mem[l_mem_ld][icnt_rc] = 0
gpgpu_stall_shd_mem[l_mem_ld][wb_icnt_rc] = 0
gpgpu_stall_shd_mem[l_mem_ld][wb_rsrv_fail] = 0
gpgpu_stall_shd_mem[l_mem_st][mshr_rc] = 0
gpgpu_stall_shd_mem[l_mem_st][icnt_rc] = 0
gpgpu_stall_shd_mem[l_mem_ld][wb_icnt_rc] = 0
gpgpu_stall_shd_mem[l_mem_ld][wb_rsrv_fail] = 0
gpu_reg_bank_conflict_stalls = 0
Warp Occupancy Distribution:
Stall:32033	W0_Idle:23730835	W0_Scoreboard:30096699	W1:60480	W2:0	W3:0	W4:0	W5:0	W6:0	W7:0	W8:0	W9:0	W10:0	W11:0	W12:0	W13:0	W14:0	W15:0	W16:0	W17:0	W18:0	W19:0	W20:0	W21:0	W22:0	W23:0	W24:0	W25:0	W26:0	W27:0	W28:0	W29:0	W30:0	W31:408180	W32:572572
traffic_breakdown_coretomem[CONST_ACC_R] = 224 {8:28,}
traffic_breakdown_coretomem[GLOBAL_ACC_R] = 251072 {8:31384,}
traffic_breakdown_coretomem[GLOBAL_ACC_W] = 2056320 {136:15120,}
traffic_breakdown_coretomem[INST_ACC_R] = 3808 {8:476,}
traffic_breakdown_memtocore[CONST_ACC_R] = 2016 {72:28,}
traffic_breakdown_memtocore[GLOBAL_ACC_R] = 3542464 {40:7560,136:23824,}
traffic_breakdown_memtocore[GLOBAL_ACC_W] = 120960 {8:15120,}
traffic_breakdown_memtocore[INST_ACC_R] = 64736 {136:476,}
maxmrqlatency = 947 
maxdqlatency = 0 
maxmflatency = 571398 
averagemflatency = 50596 
max_icnt2mem_latency = 571151 
max_icnt2sh_latency = 1211930 
mrq_lat_table:18858 	3744 	1533 	3752 	4281 	2675 	2250 	3355 	4977 	1217 	0 	0 	0 	0 	0 	0 	0 	0 	0 	0 	0 	0 	0 	0 	0 	0 	0 	0 	0 	0 	0 	0 	
dq_lat_table:0 	0 	0 	0 	0 	0 	0 	0 	0 	0 	0 	0 	0 	0 	0 	0 	0 	0 	0 	0 	0 	0 	0 	0 	0 	0 	0 	0 	0 	0 	0 	0 	
mf_lat_table:0 	0 	0 	0 	0 	0 	0 	22094 	9381 	311 	0 	70 	204 	882 	2152 	4704 	1078 	1866 	3267 	523 	0 	0 	0 	0 	0 	0 	0 	0 	0 	0 	0 	0 	
icnt2mem_lat_table:0 	0 	22526 	234 	22 	0 	9479 	1 	0 	0 	14 	64 	196 	1059 	1983 	4696 	1078 	1866 	3270 	520 	0 	0 	0 	0 	
icnt2sh_lat_table:0 	0 	25500 	5798 	114 	0 	0 	0 	0 	0 	0 	0 	0 	0 	0 	0 	0 	0 	7084 	6112 	1924 	0 	0 	0 	
mf_lat_pw_table:0 	0 	0 	0 	0 	0 	0 	77 	15 	2 	5 	0 	3 	5 	16 	25 	30 	59 	115 	17 	0 	0 	0 	0 	0 	0 	0 	0 	0 	0 	0 	0 	
maximum concurrent accesses to same row:
dram[0]:        32        32        32        32        32        32        32        32        32        32        32        32        32        32        32        32 
dram[1]:        32        32        32        32        32        32        32        32        32        32        32        32        32        32        32        32 
dram[2]:        32        32        32        32        32        32        32        32        32        32        32        32        32        32        32        32 
dram[3]:        32        32        32        32        32        32        32        32        32        32        32        32        32        32        32        32 
dram[4]:        32        32        32        32        32        32        32        32        32        32        32        32        32        32        32        32 
dram[5]:        32        32        32        32        32        32        32        32        32        32        32        32        32        32        32        32 
dram[6]:        32        32        32        32        32        32        32        32        32        32        32        32        32        32        32        32 
dram[7]:        32        32        32        32        32        32        32        32        32        32        32        32        32        32        32        32 
dram[8]:        32        32        32        32        32        32        32        32        32        32        32        32        32        32        32        32 
dram[9]:        32        32        32        32        32        32        32        32        32        32        32        32        32        32        32        32 
dram[10]:        32        32        32        32        32        32        32        32        32        32        32        32        32        32        32        32 
maximum service time to same row:
dram[0]:    237054    237055    216218    216216    226641    226641    237049    237055    234450    234450    231840    231839    234456    234453    224027    224024 
dram[1]:    237056    237061    216218    216216    226626    226626    237051    237052    234447    234450    231851    231854    234446    234453    224020    224021 
dram[2]:    237053    237052    216212    216217    226638    226646    237062    237071    234457    234456    231848    231847    234456    234462    224030    224030 
dram[3]:    237049    237049    216215    216217    226644    226635    237067    237067    234450    234459    231837    231839    234450    234450    224036    224030 
dram[4]:    237058    237052    216209    216210    226629    226635    237052    237052    234450    234456    231848    231848    234450    234454    224033    224039 
dram[5]:    237063    237058    216215    216215    226632    226635    237049    237052    234457    234459    231848    231845    234456    234457    224037    224030 
dram[6]:    237054    237061    216218    216212    226635    226634    237054    237052    234444    234450    231837    231836    234443    244867    224033    224033 
dram[7]:    237055    237058    216209    216205    226635    226637    237049    237046    234444    234447    231846    231842    234459    234459    224036    224036 
dram[8]:    237058    237051    216215    216212    226638    226629    237055    237064    234453    234447    231839    231851    234453    244864    224040    224033 
dram[9]:    237056    237055    216221    216215    226632    226623    237053    237049    234450    234444    231835    231851    234443    234456    224024    224027 
dram[10]:    237063    237064    216215    216208    226632    226632    237058    237058    234448    234449    231851    231848    234455    244868    224027    224033 
average row accesses per activate:
dram[0]: 23.363636 21.333334 22.727272 22.727272 18.461538 16.000000 18.200001 18.200001 23.500000 23.500000 24.000000 24.000000 20.000000 20.000000 20.916666 19.307692 
dram[1]: 23.272728 21.333334 22.636364 22.636364 18.461538 16.000000 21.000000 18.200001 23.500000 23.500000 23.500000 23.500000 20.428572 20.428572 20.916666 22.727272 
dram[2]: 23.272728 23.272728 22.636364 22.636364 18.461538 18.461538 17.933332 17.933332 24.000000 24.000000 23.500000 23.500000 20.428572 20.428572 22.727272 20.833334 
dram[3]: 21.333334 21.333334 22.454546 22.454546 18.461538 16.000000 20.692308 17.933332 24.000000 24.000000 23.500000 23.500000 20.428572 20.428572 22.727272 22.727272 
dram[4]: 23.272728 21.333334 22.454546 22.454546 18.461538 16.000000 18.000000 18.000000 24.000000 24.000000 23.500000 23.500000 20.000000 20.000000 21.416666 19.769230 
dram[5]: 21.333334 21.333334 22.454546 22.454546 18.461538 18.461538 20.769230 18.000000 23.500000 23.500000 24.000000 24.000000 20.000000 20.000000 21.416666 21.416666 
dram[6]: 23.272728 21.333334 22.454546 22.454546 18.000000 15.600000 21.230770 18.400000 23.500000 23.500000 24.000000 24.000000 20.000000 20.000000 21.416666 19.769230 
dram[7]: 21.000000 21.000000 23.000000 23.000000 18.000000 18.000000 21.230770 18.400000 23.500000 23.500000 24.000000 24.000000 20.000000 20.000000 21.416666 21.416666 
dram[8]: 22.909090 21.000000 23.000000 23.000000 18.000000 15.600000 21.230770 18.400000 23.500000 23.500000 24.000000 24.000000 19.857143 19.857143 21.416666 21.416666 
dram[9]: 21.000000 21.000000 23.000000 23.000000 18.000000 18.000000 18.000000 18.000000 24.000000 24.000000 24.000000 24.000000 19.857143 19.857143 21.416666 21.416666 
dram[10]: 22.909090 21.000000 22.636364 22.636364 18.461538 16.000000 20.769230 18.000000 24.000000 24.000000 24.000000 24.000000 19.857143 19.857143 21.416666 21.416666 
average row locality = 46642/2213 = 21.076366
number of total memory accesses made:
dram[0]:         0         0         0         0         0         0         0         0         0         0         0         0         0         0         0         0 
dram[1]:         0         0         0         0         0         0         0         0         0         0         0         0         0         0         0         0 
dram[2]:         0         0         0         0         0         0         0         0         0         0         0         0         0         0         0         0 
dram[3]:         0         0         0         0         0         0         0         0         0         0         0         0         0         0         0         0 
dram[4]:         0         0         0         0         0         0         0         0         0         0         0         0         0         0         0         0 
dram[5]:         0         0         0         0         0         0         0         0         0         0         0         0         0         0         0         0 
dram[6]:         0         0         0         0         0         0         0         0         0         0         0         0         0         0         0         0 
dram[7]:         0         0         0         0         0         0         0         0         0         0         0         0         0         0         0         0 
dram[8]:         0         0         0         0         0         0         0         0         0         0         0         0         0         0         0         0 
dram[9]:         0         0         0         0         0         0         0         0         0         0         0         0         0         0         0         0 
dram[10]:         0         0         0         0         0         0         0         0         0         0         0         0         0         0         0         0 
total accesses: 0
min_bank_accesses = 0!
min_chip_accesses = 0!
number of total read accesses:
dram[0]:       177       176       172       172       160       160       182       182       189       189       192       192       188       188       174       174 
dram[1]:       176       176       171       171       160       160       182       182       189       189       189       189       191       191       174       173 
dram[2]:       176       176       171       171       160       160       180       180       192       192       189       189       191       191       173       173 
dram[3]:       176       176       170       170       160       160       180       180       192       192       189       189       191       191       173       173 
dram[4]:       176       176       170       170       160       160       181       181       192       192       189       189       188       188       177       177 
dram[5]:       176       176       170       170       160       160       181       181       189       189       192       192       188       188       177       177 
dram[6]:       176       176       170       170       157       157       184       184       189       189       192       192       188       188       177       177 
dram[7]:       174       174       173       173       157       157       184       184       189       189       192       192       188       188       177       177 
dram[8]:       174       174       173       173       157       157       184       184       189       189       192       192       187       187       177       177 
dram[9]:       174       174       173       173       157       157       181       181       192       192       192       192       187       187       177       177 
dram[10]:       174       174       171       171       160       160       181       181       192       192       192       192       187       187       177       177 
total reads: 31522
bank skew: 192/157 = 1.22
chip skew: 2868/2862 = 1.00
number of total write accesses:
dram[0]:        80        80        78        78        80        80        91        91        93        93        96        96        92        92        77        77 
dram[1]:        80        80        78        78        80        80        91        91        93        93        93        93        95        95        77        77 
dram[2]:        80        80        78        78        80        80        89        89        96        96        93        93        95        95        77        77 
dram[3]:        80        80        77        77        80        80        89        89        96        96        93        93        95        95        77        77 
dram[4]:        80        80        77        77        80        80        89        89        96        96        93        93        92        92        80        80 
dram[5]:        80        80        77        77        80        80        89        89        93        93        96        96        92        92        80        80 
dram[6]:        80        80        77        77        77        77        92        92        93        93        96        96        92        92        80        80 
dram[7]:        78        78        80        80        77        77        92        92        93        93        96        96        92        92        80        80 
dram[8]:        78        78        80        80        77        77        92        92        93        93        96        96        91        91        80        80 
dram[9]:        78        78        80        80        77        77        89        89        96        96        96        96        91        91        80        80 
dram[10]:        78        78        78        78        80        80        89        89        96        96        96        96        91        91        80        80 
total reads: 15120
bank skew: 96/77 = 1.25
chip skew: 1376/1374 = 1.00
average mf latency per bank:
dram[0]:      42621     39533     48077     44993     58451     51839     61559     50620     51202     48149     54466     51402     59794     56428     48311     44419
dram[1]:      42742     41725     48160     45191     58522     51904     61718     50784     51225     49954     53454     52250     60010     56702     46076     38018
dram[2]:      42804     39573     48204     45230     59483     51997     61522     50436     52099     50422     51487     50277     59955     56646     48178     42344
dram[3]:      42610     41829     47906     44911     59566     52082     61484     50398     52089     50408     53365     50279     59995     56689     48285     38120
dram[4]:      42690     39694     47840     44846     59067     52076     61329     50262     52129     50458     53564     52355     58864     55388     48427     44799
dram[5]:      42751     41969     47943     44948     59105     52112     61374     50307     51675     48620     54523     53331     59012     57456     46294     38446
dram[6]:      42852     42066     47967     44979     58495     51555     61238     50375     51619     50339     56400     51532     59140     55706     48401     42666
dram[7]:      42605     42251     48538     45519     58393     51456     61199     50340     51641     48571     56463     53397     59288     57780     46325     40640
dram[8]:      42570     42219     48602     45575     58564     51627     61250     50395     51734     50444     54710     53520     58705     55072     46390     38600
dram[9]:      42386     42035     48637     45611     58641     51699     60431     49998     51875     48859     54751     51645     58663     56958     46350     38563
dram[10]:      42405     42059     48780     45480     59219     52071     60570     50149     51787     50523     54710     53488     58639     55078     46386     38601
maximum mf latency per bank:
dram[0]:     407250    406793    442114    441527    462863    462402    494629    494008    523539    523049    545489    543524    571214    570764    539850    541395
dram[1]:     406346    566663    442910    442462    462035    461441    495574    495117    522712    522134    546331    545887    571385    570937    381889    381443
dram[2]:     407209    406767    442781    442323    462863    462413    495809    495329    523548    523090    543774    543315    570494    569926    539851    541392
dram[3]:     406163    566681    442919    442475    462750    462280    495582    495145    523753    523307    542814    542238    571385    570948    540939    381433
dram[4]:     407122    406622    442769    442316    462868    462427    495796    495344    523554    523091    543784    543348    570218    569657    539864    541408
dram[5]:     406107    566680    442893    442451    462763    462278    495603    495133    523749    523293    543981    543537    571192    570748    382007    381536
dram[6]:     407111    566642    442769    442305    462874    462438    495808    495350    523540    523100    546329    543346    570218    569654    540522    541377
dram[7]:     407259    566684    441968    441328    462744    462294    494898    494270    523756    523310    545482    543547    571191    570761    381993    540782
dram[8]:     407105    566651    442767    442286    461952    461369    495746    495296    522908    522305    546351    545907    571385    570962    381906    381438
dram[9]:     407263    566684    442112    441507    462754    462308    494648    494035    523754    523300    545498    543540    571211    570783    381996    381559
dram[10]:     407070    566649    442907    442431    462042    461457    495595    495120    522727    522154    546352    545911    571398    570947    381888    381448
Memory Partition 0: 
Cache L2_bank_000:
MSHR contents

Cache L2_bank_001:
MSHR contents
MSHR: tag=0x80792f80, atomic=0 1 entries : 0x7fe721b4bf20 :  mf: uid=644088, sid04:w11, part=0, addr=0x80792f80, load , size=128, unknown  status = IN_PARTITION_L2_FILL_QUEUE (1211930), 

In Dram Latency Queue (total = 0): 
DRAM[0]: 16 bks, busW=4 BL=8 CL=12, tRRD=2 tCCD=6, tRCD=12 tRAS=28 tRP=12 tRC=40
n_cmd=1837877 n_nop=1820519 n_act=205 n_pre=189 n_req=4241 n_rd=11468 n_write=5496 bw_util=0.01846
n_activity=58512 dram_eff=0.5798
bk0: 708a 1831188i bk1: 704a 1831018i bk2: 688a 1831152i bk3: 688a 1830964i bk4: 640a 1830739i bk5: 640a 1830518i bk6: 728a 1830075i bk7: 728a 1829845i bk8: 756a 1830597i bk9: 756a 1830211i bk10: 768a 1830692i bk11: 768a 1830532i bk12: 752a 1830718i bk13: 752a 1830652i bk14: 696a 1830503i bk15: 696a 1830004i 
dram_util_bins: 0 0 0 0 0 0 0 0 0 0
dram_eff_bins: 0 0 0 0 0 0 0 0 0 0
mrqq: max=64 avg=0.334489
Memory Partition 1: 
Cache L2_bank_002:
MSHR contents

Cache L2_bank_003:
MSHR contents

In Dram Latency Queue (total = 0): 
DRAM[1]: 16 bks, busW=4 BL=8 CL=12, tRRD=2 tCCD=6, tRCD=12 tRAS=28 tRP=12 tRC=40
n_cmd=1837877 n_nop=1820545 n_act=200 n_pre=184 n_req=4237 n_rd=11452 n_write=5496 bw_util=0.01844
n_activity=58785 dram_eff=0.5766
bk0: 704a 1831390i bk1: 704a 1831017i bk2: 684a 1831271i bk3: 684a 1830896i bk4: 640a 1830766i bk5: 640a 1830725i bk6: 728a 1830181i bk7: 728a 1830001i bk8: 756a 1830500i bk9: 756a 1830145i bk10: 756a 1830876i bk11: 756a 1830826i bk12: 764a 1830643i bk13: 764a 1830727i bk14: 696a 1830535i bk15: 692a 1830281i 
dram_util_bins: 0 0 0 0 0 0 0 0 0 0
dram_eff_bins: 0 0 0 0 0 0 0 0 0 0
mrqq: max=64 avg=0.339547
Memory Partition 2: 
Cache L2_bank_004:
MSHR contents

Cache L2_bank_005:
MSHR contents

In Dram Latency Queue (total = 0): 
DRAM[2]: 16 bks, busW=4 BL=8 CL=12, tRRD=2 tCCD=6, tRCD=12 tRAS=28 tRP=12 tRC=40
n_cmd=1837877 n_nop=1820535 n_act=199 n_pre=183 n_req=4240 n_rd=11456 n_write=5504 bw_util=0.01846
n_activity=58564 dram_eff=0.5792
bk0: 704a 1831082i bk1: 704a 1831024i bk2: 684a 1831175i bk3: 684a 1830815i bk4: 640a 1830786i bk5: 640a 1830515i bk6: 720a 1830393i bk7: 720a 1830009i bk8: 768a 1830387i bk9: 768a 1830074i bk10: 756a 1831041i bk11: 756a 1830723i bk12: 764a 1830542i bk13: 764a 1830656i bk14: 692a 1830380i bk15: 692a 1830253i 
dram_util_bins: 0 0 0 0 0 0 0 0 0 0
dram_eff_bins: 0 0 0 0 0 0 0 0 0 0
mrqq: max=64 avg=0.337409
Memory Partition 3: 
Cache L2_bank_006:
MSHR contents

Cache L2_bank_007:
MSHR contents

In Dram Latency Queue (total = 0): 
DRAM[3]: 16 bks, busW=4 BL=8 CL=12, tRRD=2 tCCD=6, tRCD=12 tRAS=28 tRP=12 tRC=40
n_cmd=1837877 n_nop=1820549 n_act=200 n_pre=184 n_req=4236 n_rd=11448 n_write=5496 bw_util=0.01844
n_activity=58623 dram_eff=0.5781
bk0: 704a 1831511i bk1: 704a 1831334i bk2: 680a 1831310i bk3: 680a 1830971i bk4: 640a 1830822i bk5: 640a 1830674i bk6: 720a 1830521i bk7: 720a 1830028i bk8: 768a 1830556i bk9: 768a 1830340i bk10: 756a 1830728i bk11: 756a 1830642i bk12: 764a 1830788i bk13: 764a 1830810i bk14: 692a 1830763i bk15: 692a 1830507i 
dram_util_bins: 0 0 0 0 0 0 0 0 0 0
dram_eff_bins: 0 0 0 0 0 0 0 0 0 0
mrqq: max=64 avg=0.339053
Memory Partition 4: 
Cache L2_bank_008:
MSHR contents

Cache L2_bank_009:
MSHR contents

In Dram Latency Queue (total = 0): 
DRAM[4]: 16 bks, busW=4 BL=8 CL=12, tRRD=2 tCCD=6, tRCD=12 tRAS=28 tRP=12 tRC=40
n_cmd=1837877 n_nop=1820525 n_act=204 n_pre=188 n_req=4240 n_rd=11464 n_write=5496 bw_util=0.01846
n_activity=58870 dram_eff=0.5762
bk0: 704a 1831147i bk1: 704a 1831076i bk2: 680a 1831061i bk3: 680a 1830941i bk4: 640a 1830805i bk5: 640a 1830720i bk6: 724a 1830440i bk7: 724a 1829974i bk8: 768a 1830683i bk9: 768a 1830315i bk10: 756a 1830856i bk11: 756a 1830615i bk12: 752a 1830812i bk13: 752a 1830701i bk14: 708a 1830391i bk15: 708a 1830312i 
dram_util_bins: 0 0 0 0 0 0 0 0 0 0
dram_eff_bins: 0 0 0 0 0 0 0 0 0 0
mrqq: max=64 avg=0.339362
Memory Partition 5: 
Cache L2_bank_010:
MSHR contents

Cache L2_bank_011:
MSHR contents

In Dram Latency Queue (total = 0): 
DRAM[5]: 16 bks, busW=4 BL=8 CL=12, tRRD=2 tCCD=6, tRCD=12 tRAS=28 tRP=12 tRC=40
n_cmd=1837877 n_nop=1820533 n_act=200 n_pre=184 n_req=4240 n_rd=11464 n_write=5496 bw_util=0.01846
n_activity=58662 dram_eff=0.5782
bk0: 704a 1831496i bk1: 704a 1831285i bk2: 680a 1831480i bk3: 680a 1831086i bk4: 640a 1830940i bk5: 640a 1830959i bk6: 724a 1830558i bk7: 724a 1830280i bk8: 756a 1830773i bk9: 756a 1830411i bk10: 768a 1830673i bk11: 768a 1830365i bk12: 752a 1830931i bk13: 752a 1830944i bk14: 708a 1830676i bk15: 708a 1830711i 
dram_util_bins: 0 0 0 0 0 0 0 0 0 0
dram_eff_bins: 0 0 0 0 0 0 0 0 0 0
mrqq: max=64 avg=0.339492
Memory Partition 6: 
Cache L2_bank_012:
MSHR contents

Cache L2_bank_013:
MSHR contents

In Dram Latency Queue (total = 0): 
DRAM[6]: 16 bks, busW=4 BL=8 CL=12, tRRD=2 tCCD=6, tRCD=12 tRAS=28 tRP=12 tRC=40
n_cmd=1837877 n_nop=1820529 n_act=202 n_pre=186 n_req=4240 n_rd=11464 n_write=5496 bw_util=0.01846
n_activity=58731 dram_eff=0.5775
bk0: 704a 1831392i bk1: 704a 1831132i bk2: 680a 1831190i bk3: 680a 1830710i bk4: 628a 1830994i bk5: 628a 1830626i bk6: 736a 1829885i bk7: 736a 1829716i bk8: 756a 1830555i bk9: 756a 1830198i bk10: 768a 1830840i bk11: 768a 1830479i bk12: 752a 1830822i bk13: 752a 1830815i bk14: 708a 1830525i bk15: 708a 1830220i 
dram_util_bins: 0 0 0 0 0 0 0 0 0 0
dram_eff_bins: 0 0 0 0 0 0 0 0 0 0
mrqq: max=64 avg=0.33806
Memory Partition 7: 
Cache L2_bank_014:
MSHR contents

Cache L2_bank_015:
MSHR contents
MSHR: tag=0x80792080, atomic=0 1 entries : 0x7fe71a8feb00 :  mf: uid=644085, sid01:w08, part=7, addr=0x80792080, load , size=128, unknown  status = IN_PARTITION_DRAM (1211929), 

In Dram Latency Queue (total = 0): 
DRAM[7]: 16 bks, busW=4 BL=8 CL=12, tRRD=2 tCCD=6, tRCD=12 tRAS=28 tRP=12 tRC=40
n_cmd=1837877 n_nop=1820517 n_act=200 n_pre=184 n_req=4244 n_rd=11472 n_write=5504 bw_util=0.01847
n_activity=58322 dram_eff=0.5821
bk0: 696a 1831490i bk1: 696a 1831253i bk2: 692a 1831066i bk3: 692a 1830722i bk4: 628a 1830975i bk5: 628a 1830852i bk6: 736a 1830230i bk7: 736a 1829877i bk8: 756a 1830705i bk9: 756a 1830345i bk10: 768a 1830624i bk11: 768a 1830402i bk12: 752a 1830923i bk13: 752a 1830892i bk14: 708a 1830527i bk15: 708a 1830278i 
dram_util_bins: 0 0 0 0 0 0 0 0 0 0
dram_eff_bins: 0 0 0 0 0 0 0 0 0 0
mrqq: max=64 avg=0.339265
Memory Partition 8: 
Cache L2_bank_016:
MSHR contents

Cache L2_bank_017:
MSHR contents
MSHR: tag=0x80792180, atomic=0 1 entries : 0x7fe71a10e580 :  mf: uid=644086, sid02:w08, part=8, addr=0x80792180, load , size=128, unknown  status = IN_PARTITION_DRAM (1211926), 

In Dram Latency Queue (total = 0): 
DRAM[8]: 16 bks, busW=4 BL=8 CL=12, tRRD=2 tCCD=6, tRCD=12 tRAS=28 tRP=12 tRC=40
n_cmd=1837877 n_nop=1820531 n_act=201 n_pre=185 n_req=4240 n_rd=11464 n_write=5496 bw_util=0.01846
n_activity=58884 dram_eff=0.576
bk0: 696a 1831398i bk1: 696a 1831138i bk2: 692a 1830827i bk3: 692a 1830716i bk4: 628a 1831008i bk5: 628a 1830510i bk6: 736a 1830066i bk7: 736a 1829859i bk8: 756a 1830578i bk9: 756a 1830265i bk10: 768a 1830753i bk11: 768a 1830387i bk12: 748a 1830807i bk13: 748a 1830807i bk14: 708a 1830343i bk15: 708a 1830133i 
dram_util_bins: 0 0 0 0 0 0 0 0 0 0
dram_eff_bins: 0 0 0 0 0 0 0 0 0 0
mrqq: max=64 avg=0.335095
Memory Partition 9: 
Cache L2_bank_018:
MSHR contents

Cache L2_bank_019:
MSHR contents
MSHR: tag=0x80792d80, atomic=0 1 entries : 0x7fe71a023e20 :  mf: uid=644082, sid04:w10, part=9, addr=0x80792d80, load , size=128, unknown  status = IN_PARTITION_DRAM (1211930), 

In Dram Latency Queue (total = 0): 
DRAM[9]: 16 bks, busW=4 BL=8 CL=12, tRRD=2 tCCD=6, tRCD=12 tRAS=28 tRP=12 tRC=40
n_cmd=1837877 n_nop=1820531 n_act=202 n_pre=186 n_req=4240 n_rd=11462 n_write=5496 bw_util=0.01845
n_activity=58611 dram_eff=0.5787
bk0: 696a 1831433i bk1: 696a 1831364i bk2: 692a 1831030i bk3: 692a 1830684i bk4: 628a 1830886i bk5: 628a 1830699i bk6: 724a 1830334i bk7: 724a 1829830i bk8: 768a 1830390i bk9: 768a 1830202i bk10: 768a 1830477i bk11: 768a 1830242i bk12: 748a 1830955i bk13: 746a 1830712i bk14: 708a 1830460i bk15: 708a 1830174i 
dram_util_bins: 0 0 0 0 0 0 0 0 0 0
dram_eff_bins: 0 0 0 0 0 0 0 0 0 0
mrqq: max=64 avg=0.334792
Memory Partition 10: 
Cache L2_bank_020:
MSHR contents

Cache L2_bank_021:
MSHR contents
MSHR: tag=0x80792e80, atomic=0 1 entries : 0x7fe721167290 :  mf: uid=644087, sid03:w11, part=10, addr=0x80792e80, load , size=128, unknown  status = IN_PARTITION_DRAM (1211930), 

In Dram Latency Queue (total = 0): 
DRAM[10]: 16 bks, busW=4 BL=8 CL=12, tRRD=2 tCCD=6, tRCD=12 tRAS=28 tRP=12 tRC=40
n_cmd=1837877 n_nop=1820517 n_act=201 n_pre=185 n_req=4244 n_rd=11470 n_write=5504 bw_util=0.01847
n_activity=58766 dram_eff=0.5777
bk0: 696a 1831603i bk1: 696a 1831329i bk2: 684a 1831327i bk3: 684a 1831038i bk4: 640a 1830997i bk5: 640a 1830688i bk6: 724a 1830350i bk7: 724a 1829840i bk8: 768a 1830337i bk9: 768a 1830028i bk10: 768a 1830556i bk11: 768a 1830352i bk12: 748a 1830638i bk13: 746a 1830892i bk14: 708a 1830418i bk15: 708a 1830046i 
dram_util_bins: 0 0 0 0 0 0 0 0 0 0
dram_eff_bins: 0 0 0 0 0 0 0 0 0 0
mrqq: max=64 avg=0.335791

========= L2 cache stats =========
L2_cache_bank[0]: Access = 2170, Miss = 1434, Miss_rate = 0.661, Pending_hits = 32, Reservation_fails = 0
L2_cache_bank[1]: Access = 2141, Miss = 1433, Miss_rate = 0.669, Pending_hits = 107, Reservation_fails = 0
L2_cache_bank[2]: Access = 2140, Miss = 1432, Miss_rate = 0.669, Pending_hits = 2, Reservation_fails = 0
L2_cache_bank[3]: Access = 2113, Miss = 1431, Miss_rate = 0.677, Pending_hits = 107, Reservation_fails = 0
L2_cache_bank[4]: Access = 2116, Miss = 1432, Miss_rate = 0.677, Pending_hits = 1, Reservation_fails = 0
L2_cache_bank[5]: Access = 2116, Miss = 1432, Miss_rate = 0.677, Pending_hits = 108, Reservation_fails = 0
L2_cache_bank[6]: Access = 2113, Miss = 1431, Miss_rate = 0.677, Pending_hits = 1, Reservation_fails = 0
L2_cache_bank[7]: Access = 2112, Miss = 1431, Miss_rate = 0.678, Pending_hits = 105, Reservation_fails = 0
L2_cache_bank[8]: Access = 2141, Miss = 1433, Miss_rate = 0.669, Pending_hits = 28, Reservation_fails = 0
L2_cache_bank[9]: Access = 2142, Miss = 1433, Miss_rate = 0.669, Pending_hits = 131, Reservation_fails = 0
L2_cache_bank[10]: Access = 2143, Miss = 1433, Miss_rate = 0.669, Pending_hits = 28, Reservation_fails = 0
L2_cache_bank[11]: Access = 2143, Miss = 1433, Miss_rate = 0.669, Pending_hits = 133, Reservation_fails = 0
L2_cache_bank[12]: Access = 2141, Miss = 1433, Miss_rate = 0.669, Pending_hits = 27, Reservation_fails = 0
L2_cache_bank[13]: Access = 2140, Miss = 1433, Miss_rate = 0.670, Pending_hits = 132, Reservation_fails = 0
L2_cache_bank[14]: Access = 2142, Miss = 1434, Miss_rate = 0.669, Pending_hits = 27, Reservation_fails = 0
L2_cache_bank[15]: Access = 2143, Miss = 1434, Miss_rate = 0.669, Pending_hits = 134, Reservation_fails = 0
L2_cache_bank[16]: Access = 2142, Miss = 1433, Miss_rate = 0.669, Pending_hits = 27, Reservation_fails = 0
L2_cache_bank[17]: Access = 2141, Miss = 1433, Miss_rate = 0.669, Pending_hits = 129, Reservation_fails = 0
L2_cache_bank[18]: Access = 2140, Miss = 1433, Miss_rate = 0.670, Pending_hits = 4, Reservation_fails = 0
L2_cache_bank[19]: Access = 2141, Miss = 1433, Miss_rate = 0.669, Pending_hits = 111, Reservation_fails = 0
L2_cache_bank[20]: Access = 2144, Miss = 1434, Miss_rate = 0.669, Pending_hits = 3, Reservation_fails = 0
L2_cache_bank[21]: Access = 2144, Miss = 1434, Miss_rate = 0.669, Pending_hits = 106, Reservation_fails = 0
L2_total_cache_accesses = 47008
L2_total_cache_misses = 31522
L2_total_cache_miss_rate = 0.6706
L2_total_cache_pending_hits = 1483
L2_total_cache_reservation_fails = 0
L2_total_cache_breakdown:
	L2_cache_stats_breakdown[GLOBAL_ACC_R][HIT] = 13827
	L2_cache_stats_breakdown[GLOBAL_ACC_R][HIT_RESERVED] = 1173
	L2_cache_stats_breakdown[GLOBAL_ACC_R][MISS] = 16384
	L2_cache_stats_breakdown[GLOBAL_ACC_R][RESERVATION_FAIL] = 0
	L2_cache_stats_breakdown[LOCAL_ACC_R][HIT] = 0
	L2_cache_stats_breakdown[LOCAL_ACC_R][HIT_RESERVED] = 0
	L2_cache_stats_breakdown[LOCAL_ACC_R][MISS] = 0
	L2_cache_stats_breakdown[LOCAL_ACC_R][RESERVATION_FAIL] = 0
	L2_cache_stats_breakdown[CONST_ACC_R][HIT] = 0
	L2_cache_stats_breakdown[CONST_ACC_R][HIT_RESERVED] = 27
	L2_cache_stats_breakdown[CONST_ACC_R][MISS] = 1
	L2_cache_stats_breakdown[CONST_ACC_R][RESERVATION_FAIL] = 0
	L2_cache_stats_breakdown[TEXTURE_ACC_R][HIT] = 0
	L2_cache_stats_breakdown[TEXTURE_ACC_R][HIT_RESERVED] = 0
	L2_cache_stats_breakdown[TEXTURE_ACC_R][MISS] = 0
	L2_cache_stats_breakdown[TEXTURE_ACC_R][RESERVATION_FAIL] = 0
	L2_cache_stats_breakdown[GLOBAL_ACC_W][HIT] = 0
	L2_cache_stats_breakdown[GLOBAL_ACC_W][HIT_RESERVED] = 0
	L2_cache_stats_breakdown[GLOBAL_ACC_W][MISS] = 15120
	L2_cache_stats_breakdown[GLOBAL_ACC_W][RESERVATION_FAIL] = 0
	L2_cache_stats_breakdown[LOCAL_ACC_W][HIT] = 0
	L2_cache_stats_breakdown[LOCAL_ACC_W][HIT_RESERVED] = 0
	L2_cache_stats_breakdown[LOCAL_ACC_W][MISS] = 0
	L2_cache_stats_breakdown[LOCAL_ACC_W][RESERVATION_FAIL] = 0
	L2_cache_stats_breakdown[L1_WRBK_ACC][HIT] = 0
	L2_cache_stats_breakdown[L1_WRBK_ACC][HIT_RESERVED] = 0
	L2_cache_stats_breakdown[L1_WRBK_ACC][MISS] = 0
	L2_cache_stats_breakdown[L1_WRBK_ACC][RESERVATION_FAIL] = 0
	L2_cache_stats_breakdown[L2_WRBK_ACC][HIT] = 0
	L2_cache_stats_breakdown[L2_WRBK_ACC][HIT_RESERVED] = 0
	L2_cache_stats_breakdown[L2_WRBK_ACC][MISS] = 0
	L2_cache_stats_breakdown[L2_WRBK_ACC][RESERVATION_FAIL] = 0
	L2_cache_stats_breakdown[INST_ACC_R][HIT] = 176
	L2_cache_stats_breakdown[INST_ACC_R][HIT_RESERVED] = 283
	L2_cache_stats_breakdown[INST_ACC_R][MISS] = 17
	L2_cache_stats_breakdown[INST_ACC_R][RESERVATION_FAIL] = 0
	L2_cache_stats_breakdown[L1_WR_ALLOC_R][HIT] = 0
	L2_cache_stats_breakdown[L1_WR_ALLOC_R][HIT_RESERVED] = 0
	L2_cache_stats_breakdown[L1_WR_ALLOC_R][MISS] = 0
	L2_cache_stats_breakdown[L1_WR_ALLOC_R][RESERVATION_FAIL] = 0
	L2_cache_stats_breakdown[L2_WR_ALLOC_R][HIT] = 0
	L2_cache_stats_breakdown[L2_WR_ALLOC_R][HIT_RESERVED] = 0
	L2_cache_stats_breakdown[L2_WR_ALLOC_R][MISS] = 0
	L2_cache_stats_breakdown[L2_WR_ALLOC_R][RESERVATION_FAIL] = 0
	L2_cache_stats_breakdown[GLOBAL_ACC_R][TOTAL_ACCESS] = 31384
	L2_cache_stats_breakdown[CONST_ACC_R][TOTAL_ACCESS] = 28
	L2_cache_stats_breakdown[GLOBAL_ACC_W][TOTAL_ACCESS] = 15120
	L2_cache_stats_breakdown[INST_ACC_R][TOTAL_ACCESS] = 476
L2_cache_data_port_util = 0.002
L2_cache_fill_port_util = 0.006

icnt_total_pkts_mem_to_simt=151824
icnt_total_pkts_simt_to_mem=107488
LD_mem_lat_dist  0 0 0 0 0 0 0 0 0 0 0 0 0 0 0 0 0 0 0 0 0 0 0 0 0 0 0
ST_mem_lat_dist  0 0 0 0 0 0 0 0 0 0 0 0 0 0 0 0 0 0 0 0 0 0 0 0 0 0 0
----------------------------Interconnect-DETAILS--------------------------------
Class 0:
Packet latency average = 12.603
	minimum = 6
	maximum = 1329
Network latency average = 11.1514
	minimum = 6
	maximum = 1318
Slowest packet = 42118
Flit latency average = 10.8275
	minimum = 6
	maximum = 1314
Slowest flit = 119101
Fragmentation average = 0.244309
	minimum = 0
	maximum = 1303
Injected packet rate average = 0.000949868
	minimum = 0.000752693 (at node 0)
	maximum = 0.00112449 (at node 3)
Accepted packet rate average = 0.000949868
	minimum = 0.000752693 (at node 0)
	maximum = 0.00112449 (at node 3)
Injected flit rate average = 0.0026199
	minimum = 0.00172261 (at node 0)
	maximum = 0.00354321 (at node 28)
Accepted flit rate average= 0.0026199
	minimum = 0.00242882 (at node 0)
	maximum = 0.00362101 (at node 3)
Injected packet length average = 2.75817
Accepted packet length average = 2.75817
Total in-flight flits = 0 (0 measured)
====== Overall Traffic Statistics ======
====== Traffic class 0 ======
Packet latency average = 12.603 (1 samples)
	minimum = 6 (1 samples)
	maximum = 1329 (1 samples)
Network latency average = 11.1514 (1 samples)
	minimum = 6 (1 samples)
	maximum = 1318 (1 samples)
Flit latency average = 10.8275 (1 samples)
	minimum = 6 (1 samples)
	maximum = 1314 (1 samples)
Fragmentation average = 0.244309 (1 samples)
	minimum = 0 (1 samples)
	maximum = 1303 (1 samples)
Injected packet rate average = 0.000949868 (1 samples)
	minimum = 0.000752693 (1 samples)
	maximum = 0.00112449 (1 samples)
Accepted packet rate average = 0.000949868 (1 samples)
	minimum = 0.000752693 (1 samples)
	maximum = 0.00112449 (1 samples)
Injected flit rate average = 0.0026199 (1 samples)
	minimum = 0.00172261 (1 samples)
	maximum = 0.00354321 (1 samples)
Accepted flit rate average = 0.0026199 (1 samples)
	minimum = 0.00242882 (1 samples)
	maximum = 0.00362101 (1 samples)
Injected packet size average = 2.75817 (1 samples)
Accepted packet size average = 2.75817 (1 samples)
Hops average = 1 (1 samples)
----------------------------END-of-Interconnect-DETAILS-------------------------


gpgpu_simulation_time = 0 days, 0 hrs, 25 min, 34 sec (1534 sec)
gpgpu_simulation_rate = 18806 (inst/sec)
gpgpu_simulation_rate = 790 (cycle/sec)

GPGPU-Sim PTX: cudaLaunch for 0x0x401496 (mode=performance simulation) on stream 0
GPGPU-Sim PTX: pushing kernel '_Z24block2D_hybrid_coarsen_xffPfS_iii' to stream 0, gridDim= (2,32,1) blockDim = (32,4,1) 
GPGPU-Sim uArch: Shader 9 bind to kernel 2 '_Z24block2D_hybrid_coarsen_xffPfS_iii'
GPGPU-Sim uArch: Shader 10 bind to kernel 2 '_Z24block2D_hybrid_coarsen_xffPfS_iii'
GPGPU-Sim uArch: Shader 11 bind to kernel 2 '_Z24block2D_hybrid_coarsen_xffPfS_iii'
GPGPU-Sim uArch: Shader 12 bind to kernel 2 '_Z24block2D_hybrid_coarsen_xffPfS_iii'
GPGPU-Sim uArch: Shader 13 bind to kernel 2 '_Z24block2D_hybrid_coarsen_xffPfS_iii'
GPGPU-Sim uArch: Shader 14 bind to kernel 2 '_Z24block2D_hybrid_coarsen_xffPfS_iii'
GPGPU-Sim uArch: Shader 15 bind to kernel 2 '_Z24block2D_hybrid_coarsen_xffPfS_iii'
GPGPU-Sim uArch: Shader 16 bind to kernel 2 '_Z24block2D_hybrid_coarsen_xffPfS_iii'
GPGPU-Sim uArch: Shader 17 bind to kernel 2 '_Z24block2D_hybrid_coarsen_xffPfS_iii'
GPGPU-Sim uArch: Shader 18 bind to kernel 2 '_Z24block2D_hybrid_coarsen_xffPfS_iii'
GPGPU-Sim uArch: Shader 19 bind to kernel 2 '_Z24block2D_hybrid_coarsen_xffPfS_iii'
GPGPU-Sim uArch: Shader 20 bind to kernel 2 '_Z24block2D_hybrid_coarsen_xffPfS_iii'
GPGPU-Sim uArch: Shader 21 bind to kernel 2 '_Z24block2D_hybrid_coarsen_xffPfS_iii'
GPGPU-Sim uArch: Shader 22 bind to kernel 2 '_Z24block2D_hybrid_coarsen_xffPfS_iii'
GPGPU-Sim uArch: Shader 23 bind to kernel 2 '_Z24block2D_hybrid_coarsen_xffPfS_iii'
GPGPU-Sim uArch: Shader 24 bind to kernel 2 '_Z24block2D_hybrid_coarsen_xffPfS_iii'
GPGPU-Sim uArch: Shader 25 bind to kernel 2 '_Z24block2D_hybrid_coarsen_xffPfS_iii'
GPGPU-Sim uArch: Shader 26 bind to kernel 2 '_Z24block2D_hybrid_coarsen_xffPfS_iii'
GPGPU-Sim uArch: Shader 27 bind to kernel 2 '_Z24block2D_hybrid_coarsen_xffPfS_iii'
GPGPU-Sim uArch: Shader 0 bind to kernel 2 '_Z24block2D_hybrid_coarsen_xffPfS_iii'
GPGPU-Sim uArch: Shader 1 bind to kernel 2 '_Z24block2D_hybrid_coarsen_xffPfS_iii'
GPGPU-Sim uArch: Shader 2 bind to kernel 2 '_Z24block2D_hybrid_coarsen_xffPfS_iii'
GPGPU-Sim uArch: Shader 3 bind to kernel 2 '_Z24block2D_hybrid_coarsen_xffPfS_iii'
GPGPU-Sim uArch: Shader 4 bind to kernel 2 '_Z24block2D_hybrid_coarsen_xffPfS_iii'
GPGPU-Sim uArch: Shader 5 bind to kernel 2 '_Z24block2D_hybrid_coarsen_xffPfS_iii'
GPGPU-Sim uArch: Shader 6 bind to kernel 2 '_Z24block2D_hybrid_coarsen_xffPfS_iii'
GPGPU-Sim uArch: Shader 7 bind to kernel 2 '_Z24block2D_hybrid_coarsen_xffPfS_iii'
GPGPU-Sim uArch: Shader 8 bind to kernel 2 '_Z24block2D_hybrid_coarsen_xffPfS_iii'
Destroy streams for kernel 2: size 0
kernel_name = _Z24block2D_hybrid_coarsen_xffPfS_iii 
kernel_launch_uid = 2 
gpu_sim_cycle = 532213
gpu_sim_insn = 28848876
gpu_ipc =      54.2055
gpu_tot_sim_cycle = 1966294
gpu_tot_sim_insn = 57697752
gpu_tot_ipc =      29.3434
gpu_tot_issued_cta = 128
max_total_param_size = 0
gpu_stall_dramfull = 23272
gpu_stall_icnt2sh    = 2096
partiton_reqs_in_parallel = 11708686
partiton_reqs_in_parallel_total    = 21751910
partiton_level_parallism =      22.0000
partiton_level_parallism_total  =      17.0171
partiton_reqs_in_parallel_util = 11708686
partiton_reqs_in_parallel_util_total    = 21751910
gpu_sim_cycle_parition_util = 532213
gpu_tot_sim_cycle_parition_util    = 989098
partiton_level_parallism_util =      22.0000
partiton_level_parallism_util_total  =      21.9946
partiton_replys_in_parallel = 46504
partiton_replys_in_parallel_total    = 47008
L2_BW  =       8.2821 GB/Sec
L2_BW_total  =       4.5077 GB/Sec
gpu_total_sim_rate=26154

========= Core cache stats =========
L1I_cache:
	L1I_total_cache_accesses = 1158456
	L1I_total_cache_misses = 3182
	L1I_total_cache_miss_rate = 0.0027
	L1I_total_cache_pending_hits = 0
	L1I_total_cache_reservation_fails = 0
L1D_cache:
	L1D_cache_core[0]: Access = 0, Miss = 0, Miss_rate = -nan, Pending_hits = 0, Reservation_fails = 0
	L1D_cache_core[1]: Access = 0, Miss = 0, Miss_rate = -nan, Pending_hits = 0, Reservation_fails = 0
	L1D_cache_core[2]: Access = 0, Miss = 0, Miss_rate = -nan, Pending_hits = 0, Reservation_fails = 0
	L1D_cache_core[3]: Access = 0, Miss = 0, Miss_rate = -nan, Pending_hits = 0, Reservation_fails = 0
	L1D_cache_core[4]: Access = 0, Miss = 0, Miss_rate = -nan, Pending_hits = 0, Reservation_fails = 0
	L1D_cache_core[5]: Access = 0, Miss = 0, Miss_rate = -nan, Pending_hits = 0, Reservation_fails = 0
	L1D_cache_core[6]: Access = 0, Miss = 0, Miss_rate = -nan, Pending_hits = 0, Reservation_fails = 0
	L1D_cache_core[7]: Access = 0, Miss = 0, Miss_rate = -nan, Pending_hits = 0, Reservation_fails = 0
	L1D_cache_core[8]: Access = 0, Miss = 0, Miss_rate = -nan, Pending_hits = 0, Reservation_fails = 0
	L1D_cache_core[9]: Access = 0, Miss = 0, Miss_rate = -nan, Pending_hits = 0, Reservation_fails = 0
	L1D_cache_core[10]: Access = 0, Miss = 0, Miss_rate = -nan, Pending_hits = 0, Reservation_fails = 0
	L1D_cache_core[11]: Access = 0, Miss = 0, Miss_rate = -nan, Pending_hits = 0, Reservation_fails = 0
	L1D_cache_core[12]: Access = 0, Miss = 0, Miss_rate = -nan, Pending_hits = 0, Reservation_fails = 0
	L1D_cache_core[13]: Access = 0, Miss = 0, Miss_rate = -nan, Pending_hits = 0, Reservation_fails = 0
	L1D_cache_core[14]: Access = 0, Miss = 0, Miss_rate = -nan, Pending_hits = 0, Reservation_fails = 0
	L1D_cache_core[15]: Access = 0, Miss = 0, Miss_rate = -nan, Pending_hits = 0, Reservation_fails = 0
	L1D_cache_core[16]: Access = 0, Miss = 0, Miss_rate = -nan, Pending_hits = 0, Reservation_fails = 0
	L1D_cache_core[17]: Access = 0, Miss = 0, Miss_rate = -nan, Pending_hits = 0, Reservation_fails = 0
	L1D_cache_core[18]: Access = 0, Miss = 0, Miss_rate = -nan, Pending_hits = 0, Reservation_fails = 0
	L1D_cache_core[19]: Access = 0, Miss = 0, Miss_rate = -nan, Pending_hits = 0, Reservation_fails = 0
	L1D_cache_core[20]: Access = 0, Miss = 0, Miss_rate = -nan, Pending_hits = 0, Reservation_fails = 0
	L1D_cache_core[21]: Access = 0, Miss = 0, Miss_rate = -nan, Pending_hits = 0, Reservation_fails = 0
	L1D_cache_core[22]: Access = 0, Miss = 0, Miss_rate = -nan, Pending_hits = 0, Reservation_fails = 0
	L1D_cache_core[23]: Access = 0, Miss = 0, Miss_rate = -nan, Pending_hits = 0, Reservation_fails = 0
	L1D_cache_core[24]: Access = 0, Miss = 0, Miss_rate = -nan, Pending_hits = 0, Reservation_fails = 0
	L1D_cache_core[25]: Access = 0, Miss = 0, Miss_rate = -nan, Pending_hits = 0, Reservation_fails = 0
	L1D_cache_core[26]: Access = 0, Miss = 0, Miss_rate = -nan, Pending_hits = 0, Reservation_fails = 0
	L1D_cache_core[27]: Access = 0, Miss = 0, Miss_rate = -nan, Pending_hits = 0, Reservation_fails = 0
	L1D_total_cache_accesses = 0
	L1D_total_cache_misses = 0
	L1D_total_cache_pending_hits = 0
[...]
F: 28239942----T: 28242547 	 St: 805ff000 Sz: 4096 	 Sm: 0 	 T: write_back(1.758947)
F: 28242547----T: 28245152 	 St: 80696000 Sz: 4096 	 Sm: 0 	 T: memcpy_h2d(1.758947)
F: 28242547----T: 28245152 	 St: 80514000 Sz: 4096 	 Sm: 0 	 T: write_back(1.758947)
F: 28245152----T: 28247757 	 St: 80680000 Sz: 4096 	 Sm: 0 	 T: memcpy_h2d(1.758947)
F: 28245152----T: 28247757 	 St: 80419000 Sz: 4096 	 Sm: 0 	 T: write_back(1.758947)
F: 28247757----T: 28250362 	 St: 806c6000 Sz: 4096 	 Sm: 0 	 T: memcpy_h2d(1.758947)
F: 28247757----T: 28250362 	 St: 804df000 Sz: 4096 	 Sm: 0 	 T: write_back(1.758947)
F: 28250362----T: 28252967 	 St: 80557000 Sz: 4096 	 Sm: 0 	 T: memcpy_h2d(1.758947)
F: 28250362----T: 28252967 	 St: 80753000 Sz: 4096 	 Sm: 0 	 T: write_back(1.758947)
F: 28252967----T: 28255572 	 St: 80787000 Sz: 4096 	 Sm: 0 	 T: memcpy_h2d(1.758947)
F: 28252967----T: 28255572 	 St: 803d9000 Sz: 4096 	 Sm: 0 	 T: write_back(1.758947)
F: 28255572----T: 28258177 	 St: 80462000 Sz: 4096 	 Sm: 0 	 T: memcpy_h2d(1.758947)
F: 28255572----T: 28258177 	 St: 80757000 Sz: 4096 	 Sm: 0 	 T: write_back(1.758947)
F: 28258177----T: 28260782 	 St: 80491000 Sz: 4096 	 Sm: 0 	 T: memcpy_h2d(1.758947)
F: 28258177----T: 28260782 	 St: 80630000 Sz: 4096 	 Sm: 0 	 T: write_back(1.758947)
F: 28260782----T: 28263387 	 St: 804a1000 Sz: 4096 	 Sm: 0 	 T: memcpy_h2d(1.758947)
F: 28260782----T: 28263387 	 St: 803df000 Sz: 4096 	 Sm: 0 	 T: write_back(1.758947)
F: 28263387----T: 28265992 	 St: 806d4000 Sz: 4096 	 Sm: 0 	 T: memcpy_h2d(1.758947)
F: 28263387----T: 28265992 	 St: 804ac000 Sz: 4096 	 Sm: 0 	 T: write_back(1.758947)
F: 28265992----T: 28268597 	 St: 804b1000 Sz: 4096 	 Sm: 0 	 T: memcpy_h2d(1.758947)
F: 28265992----T: 28268597 	 St: 804cb000 Sz: 4096 	 Sm: 0 	 T: write_back(1.758947)
F: 28268597----T: 28271202 	 St: 806d2000 Sz: 4096 	 Sm: 0 	 T: memcpy_h2d(1.758947)
F: 28268597----T: 28271202 	 St: 80512000 Sz: 4096 	 Sm: 0 	 T: write_back(1.758947)
F: 28271202----T: 28273807 	 St: 8042e000 Sz: 4096 	 Sm: 0 	 T: memcpy_h2d(1.758947)
F: 28271202----T: 28273807 	 St: 803de000 Sz: 4096 	 Sm: 0 	 T: write_back(1.758947)
F: 28273807----T: 28276412 	 St: 8065d000 Sz: 4096 	 Sm: 0 	 T: memcpy_h2d(1.758947)
F: 28273807----T: 28276412 	 St: 805ed000 Sz: 4096 	 Sm: 0 	 T: write_back(1.758947)
F: 28276412----T: 28279017 	 St: 806c3000 Sz: 4096 	 Sm: 0 	 T: memcpy_h2d(1.758947)
F: 28276412----T: 28279017 	 St: 80412000 Sz: 4096 	 Sm: 0 	 T: write_back(1.758947)
F: 28279017----T: 28281622 	 St: 8067d000 Sz: 4096 	 Sm: 0 	 T: memcpy_h2d(1.758947)
F: 28279017----T: 28281622 	 St: 804d9000 Sz: 4096 	 Sm: 0 	 T: write_back(1.758947)
F: 28281622----T: 28284227 	 St: 8045a000 Sz: 4096 	 Sm: 0 	 T: memcpy_h2d(1.758947)
F: 28281622----T: 28284227 	 St: 80441000 Sz: 4096 	 Sm: 0 	 T: write_back(1.758947)
F: 28284227----T: 28286832 	 St: 8067a000 Sz: 4096 	 Sm: 0 	 T: memcpy_h2d(1.758947)
F: 28284227----T: 28286832 	 St: 806b9000 Sz: 4096 	 Sm: 0 	 T: write_back(1.758947)
F: 28286832----T: 28289437 	 St: 80479000 Sz: 4096 	 Sm: 0 	 T: memcpy_h2d(1.758947)
F: 28286832----T: 28289437 	 St: 8070a000 Sz: 4096 	 Sm: 0 	 T: write_back(1.758947)
F: 28289437----T: 28292042 	 St: 8043b000 Sz: 4096 	 Sm: 0 	 T: memcpy_h2d(1.758947)
F: 28289437----T: 28292042 	 St: 80422000 Sz: 4096 	 Sm: 0 	 T: write_back(1.758947)
F: 28292042----T: 28294647 	 St: 8045b000 Sz: 4096 	 Sm: 0 	 T: memcpy_h2d(1.758947)
F: 28292042----T: 28294647 	 St: 80791000 Sz: 4096 	 Sm: 0 	 T: write_back(1.758947)
F: 28294647----T: 28297252 	 St: 8044f000 Sz: 4096 	 Sm: 0 	 T: memcpy_h2d(1.758947)
F: 28294647----T: 28297252 	 St: 8049f000 Sz: 4096 	 Sm: 0 	 T: write_back(1.758947)
F: 28297252----T: 28299857 	 St: 8046e000 Sz: 4096 	 Sm: 0 	 T: memcpy_h2d(1.758947)
F: 28297252----T: 28299857 	 St: 803f8000 Sz: 4096 	 Sm: 0 	 T: write_back(1.758947)
F: 28299857----T: 28302462 	 St: 806ae000 Sz: 4096 	 Sm: 0 	 T: memcpy_h2d(1.758947)
F: 28299857----T: 28302462 	 St: 80589000 Sz: 4096 	 Sm: 0 	 T: write_back(1.758947)
F: 28302462----T: 28305067 	 St: 804fc000 Sz: 4096 	 Sm: 0 	 T: memcpy_h2d(1.758947)
F: 28302462----T: 28305067 	 St: 80463000 Sz: 4096 	 Sm: 0 	 T: write_back(1.758947)
F: 28305067----T: 28307672 	 St: 804fb000 Sz: 4096 	 Sm: 0 	 T: memcpy_h2d(1.758947)
F: 28305067----T: 28307672 	 St: 80459000 Sz: 4096 	 Sm: 0 	 T: write_back(1.758947)
F: 28307672----T: 28310277 	 St: 8052b000 Sz: 4096 	 Sm: 0 	 T: memcpy_h2d(1.758947)
F: 28307672----T: 28310277 	 St: 803c2000 Sz: 4096 	 Sm: 0 	 T: write_back(1.758947)
F: 28310277----T: 28312882 	 St: 806d6000 Sz: 4096 	 Sm: 0 	 T: memcpy_h2d(1.758947)
F: 28310277----T: 28312882 	 St: 803d5000 Sz: 4096 	 Sm: 0 	 T: write_back(1.758947)
F: 28312882----T: 28315487 	 St: 8053b000 Sz: 4096 	 Sm: 0 	 T: memcpy_h2d(1.758947)
F: 28312882----T: 28315487 	 St: 806fb000 Sz: 4096 	 Sm: 0 	 T: write_back(1.758947)
F: 28315487----T: 28318092 	 St: 8055c000 Sz: 4096 	 Sm: 0 	 T: memcpy_h2d(1.758947)
F: 28315487----T: 28318092 	 St: 80516000 Sz: 4096 	 Sm: 0 	 T: write_back(1.758947)
F: 28318092----T: 28320697 	 St: 804c0000 Sz: 4096 	 Sm: 0 	 T: memcpy_h2d(1.758947)
F: 28318092----T: 28320697 	 St: 803f5000 Sz: 4096 	 Sm: 0 	 T: write_back(1.758947)
F: 28320697----T: 28323302 	 St: 8077c000 Sz: 4096 	 Sm: 0 	 T: memcpy_h2d(1.758947)
F: 28320697----T: 28323302 	 St: 8063d000 Sz: 4096 	 Sm: 0 	 T: write_back(1.758947)
F: 28323302----T: 28325907 	 St: 8076b000 Sz: 4096 	 Sm: 0 	 T: memcpy_h2d(1.758947)
F: 28323302----T: 28325907 	 St: 80585000 Sz: 4096 	 Sm: 0 	 T: write_back(1.758947)
F: 28325907----T: 28328512 	 St: 806f1000 Sz: 4096 	 Sm: 0 	 T: memcpy_h2d(1.758947)
F: 28325907----T: 28328512 	 St: 80632000 Sz: 4096 	 Sm: 0 	 T: write_back(1.758947)
F: 28328512----T: 28331117 	 St: 804df000 Sz: 4096 	 Sm: 0 	 T: memcpy_h2d(1.758947)
F: 28328512----T: 28331117 	 St: 80708000 Sz: 4096 	 Sm: 0 	 T: write_back(1.758947)
F: 28331117----T: 28333722 	 St: 804f0000 Sz: 4096 	 Sm: 0 	 T: memcpy_h2d(1.758947)
F: 28331117----T: 28333722 	 St: 8077f000 Sz: 4096 	 Sm: 0 	 T: write_back(1.758947)
F: 28333722----T: 28336327 	 St: 8051f000 Sz: 4096 	 Sm: 0 	 T: memcpy_h2d(1.758947)
F: 28333722----T: 28336327 	 St: 80736000 Sz: 4096 	 Sm: 0 	 T: write_back(1.758947)
F: 28336327----T: 28338932 	 St: 80520000 Sz: 4096 	 Sm: 0 	 T: memcpy_h2d(1.758947)
F: 28336327----T: 28338932 	 St: 8046c000 Sz: 4096 	 Sm: 0 	 T: write_back(1.758947)
F: 28338932----T: 28341537 	 St: 8053f000 Sz: 4096 	 Sm: 0 	 T: memcpy_h2d(1.758947)
F: 28339685----T: 28342290 	 St: 8046f000 Sz: 4096 	 Sm: 0 	 T: write_back(1.758947)
F: 28341537----T: 28344142 	 St: 8054f000 Sz: 4096 	 Sm: 0 	 T: memcpy_h2d(1.758947)
F: 28344142----T: 28346747 	 St: 80705000 Sz: 4096 	 Sm: 0 	 T: memcpy_h2d(1.758947)
F: 28346747----T: 28349352 	 St: 80514000 Sz: 4096 	 Sm: 0 	 T: memcpy_h2d(1.758947)
F: 28349352----T: 28351957 	 St: 806e2000 Sz: 4096 	 Sm: 0 	 T: memcpy_h2d(1.758947)
F: 28351957----T: 28354562 	 St: 80544000 Sz: 4096 	 Sm: 0 	 T: memcpy_h2d(1.758947)
F: 28352278----T: 28354883 	 St: 80660000 Sz: 4096 	 Sm: 0 	 T: write_back(1.758947)
F: 28354562----T: 28357167 	 St: 80764000 Sz: 4096 	 Sm: 0 	 T: memcpy_h2d(1.758947)
F: 28354883----T: 28357488 	 St: 806c5000 Sz: 4096 	 Sm: 0 	 T: write_back(1.758947)
F: 28357167----T: 28359772 	 St: 806e3000 Sz: 4096 	 Sm: 0 	 T: memcpy_h2d(1.758947)
F: 28357488----T: 28360093 	 St: 80611000 Sz: 4096 	 Sm: 0 	 T: write_back(1.758947)
F: 28359772----T: 28362377 	 St: 806ad000 Sz: 4096 	 Sm: 0 	 T: memcpy_h2d(1.758947)
F: 28360093----T: 28362698 	 St: 806c9000 Sz: 4096 	 Sm: 0 	 T: write_back(1.758947)
F: 28362377----T: 28364982 	 St: 804ac000 Sz: 4096 	 Sm: 0 	 T: memcpy_h2d(1.758947)
F: 28362698----T: 28365303 	 St: 80451000 Sz: 4096 	 Sm: 0 	 T: write_back(1.758947)
F: 28364982----T: 28367587 	 St: 8068a000 Sz: 4096 	 Sm: 0 	 T: memcpy_h2d(1.758947)
F: 28365303----T: 28367908 	 St: 8054d000 Sz: 4096 	 Sm: 0 	 T: write_back(1.758947)
F: 28367587----T: 28370192 	 St: 804ae000 Sz: 4096 	 Sm: 0 	 T: memcpy_h2d(1.758947)
F: 28367908----T: 28370513 	 St: 80618000 Sz: 4096 	 Sm: 0 	 T: write_back(1.758947)
F: 28370192----T: 28372797 	 St: 804be000 Sz: 4096 	 Sm: 0 	 T: memcpy_h2d(1.758947)
F: 28370513----T: 28373118 	 St: 80424000 Sz: 4096 	 Sm: 0 	 T: write_back(1.758947)
F: 28372797----T: 28375402 	 St: 8072e000 Sz: 4096 	 Sm: 0 	 T: memcpy_h2d(1.758947)
F: 28373118----T: 28375723 	 St: 803b9000 Sz: 4096 	 Sm: 0 	 T: write_back(1.758947)
F: 28375402----T: 28378007 	 St: 80716000 Sz: 4096 	 Sm: 0 	 T: memcpy_h2d(1.758947)
F: 28375723----T: 28378328 	 St: 8055f000 Sz: 4096 	 Sm: 0 	 T: write_back(1.758947)
F: 28378007----T: 28380612 	 St: 8055b000 Sz: 4096 	 Sm: 0 	 T: memcpy_h2d(1.758947)
F: 28380190----T: 28382795 	 St: 8049c000 Sz: 4096 	 Sm: 0 	 T: write_back(1.758947)
F: 28380612----T: 28383217 	 St: 8079c000 Sz: 4096 	 Sm: 0 	 T: memcpy_h2d(1.758947)
F: 28383217----T: 28385822 	 St: 80531000 Sz: 4096 	 Sm: 0 	 T: memcpy_h2d(1.758947)
F: 28385822----T: 28388427 	 St: 80791000 Sz: 4096 	 Sm: 0 	 T: memcpy_h2d(1.758947)
F: 28388427----T: 28391032 	 St: 80755000 Sz: 4096 	 Sm: 0 	 T: memcpy_h2d(1.758947)
F: 28388990----T: 28391595 	 St: 8069f000 Sz: 4096 	 Sm: 0 	 T: write_back(1.758947)
F: 28391032----T: 28393637 	 St: 804d2000 Sz: 4096 	 Sm: 0 	 T: memcpy_h2d(1.758947)
F: 28391595----T: 28394200 	 St: 805df000 Sz: 4096 	 Sm: 0 	 T: write_back(1.758947)
F: 28393637----T: 28396242 	 St: 806d2000 Sz: 4096 	 Sm: 0 	 T: memcpy_h2d(1.758947)
F: 28395591----T: 28398196 	 St: 8058b000 Sz: 4096 	 Sm: 0 	 T: write_back(1.758947)
F: 28396242----T: 28398847 	 St: 806f2000 Sz: 4096 	 Sm: 0 	 T: memcpy_h2d(1.758947)
F: 28398847----T: 28401452 	 St: 80564000 Sz: 4096 	 Sm: 0 	 T: memcpy_h2d(1.758947)
F: 28401452----T: 28404057 	 St: 80794000 Sz: 4096 	 Sm: 0 	 T: memcpy_h2d(1.758947)
F: 28402623----T: 28405228 	 St: 806f7000 Sz: 4096 	 Sm: 0 	 T: write_back(1.758947)
F: 28404057----T: 28406662 	 St: 804e3000 Sz: 4096 	 Sm: 0 	 T: memcpy_h2d(1.758947)
F: 28406494----T: 28409099 	 St: 80694000 Sz: 4096 	 Sm: 0 	 T: write_back(1.758947)
F: 28406662----T: 28409267 	 St: 80503000 Sz: 4096 	 Sm: 0 	 T: memcpy_h2d(1.758947)
F: 28409267----T: 28411872 	 St: 804bd000 Sz: 4096 	 Sm: 0 	 T: memcpy_h2d(1.758947)
F: 28411872----T: 28414477 	 St: 80733000 Sz: 4096 	 Sm: 0 	 T: memcpy_h2d(1.758947)
F: 28414477----T: 28417082 	 St: 8070d000 Sz: 4096 	 Sm: 0 	 T: memcpy_h2d(1.758947)
F: 28414994----T: 28417599 	 St: 80579000 Sz: 4096 	 Sm: 0 	 T: write_back(1.758947)
F: 28417082----T: 28419687 	 St: 806b9000 Sz: 4096 	 Sm: 0 	 T: memcpy_h2d(1.758947)
F: 28417599----T: 28420204 	 St: 8069d000 Sz: 4096 	 Sm: 0 	 T: write_back(1.758947)
F: 28419687----T: 28422292 	 St: 806ba000 Sz: 4096 	 Sm: 0 	 T: memcpy_h2d(1.758947)
F: 28420204----T: 28422809 	 St: 805ec000 Sz: 4096 	 Sm: 0 	 T: write_back(1.758947)
F: 28422292----T: 28424897 	 St: 8073e000 Sz: 4096 	 Sm: 0 	 T: memcpy_h2d(1.758947)
F: 28422809----T: 28425414 	 St: 80756000 Sz: 4096 	 Sm: 0 	 T: write_back(1.758947)
F: 28424897----T: 28427502 	 St: 80516000 Sz: 4096 	 Sm: 0 	 T: memcpy_h2d(1.758947)
F: 28425414----T: 28428019 	 St: 80522000 Sz: 4096 	 Sm: 0 	 T: write_back(1.758947)
F: 28427502----T: 28430107 	 St: 80736000 Sz: 4096 	 Sm: 0 	 T: memcpy_h2d(1.758947)
F: 28428019----T: 28430624 	 St: 804bf000 Sz: 4096 	 Sm: 0 	 T: write_back(1.758947)
F: 28430107----T: 28432712 	 St: 807a0000 Sz: 4096 	 Sm: 0 	 T: memcpy_h2d(1.758947)
F: 28430624----T: 28433229 	 St: 80406000 Sz: 4096 	 Sm: 0 	 T: write_back(1.758947)
F: 28432712----T: 28435317 	 St: 807a1000 Sz: 4096 	 Sm: 0 	 T: memcpy_h2d(1.758947)
F: 28433229----T: 28435834 	 St: 806e1000 Sz: 4096 	 Sm: 0 	 T: write_back(1.758947)
F: 28435317----T: 28437922 	 St: 80545000 Sz: 4096 	 Sm: 0 	 T: memcpy_h2d(1.758947)
F: 28435834----T: 28438439 	 St: 80417000 Sz: 4096 	 Sm: 0 	 T: write_back(1.758947)
F: 28437922----T: 28440527 	 St: 80795000 Sz: 4096 	 Sm: 0 	 T: memcpy_h2d(1.758947)
F: 28438439----T: 28441044 	 St: 80711000 Sz: 4096 	 Sm: 0 	 T: write_back(1.758947)
F: 28440527----T: 28443132 	 St: 80512000 Sz: 4096 	 Sm: 0 	 T: memcpy_h2d(1.758947)
F: 28441044----T: 28443649 	 St: 80666000 Sz: 4096 	 Sm: 0 	 T: write_back(1.758947)
F: 28443132----T: 28445737 	 St: 80762000 Sz: 4096 	 Sm: 0 	 T: memcpy_h2d(1.758947)
F: 28443649----T: 28446254 	 St: 8070e000 Sz: 4096 	 Sm: 0 	 T: write_back(1.758947)
F: 28445737----T: 28448342 	 St: 80523000 Sz: 4096 	 Sm: 0 	 T: memcpy_h2d(1.758947)
F: 28446254----T: 28448859 	 St: 806c8000 Sz: 4096 	 Sm: 0 	 T: write_back(1.758947)
F: 28448342----T: 28450947 	 St: 80533000 Sz: 4096 	 Sm: 0 	 T: memcpy_h2d(1.758947)
F: 28448859----T: 28451464 	 St: 804f6000 Sz: 4096 	 Sm: 0 	 T: write_back(1.758947)
F: 28450947----T: 28453552 	 St: 80753000 Sz: 4096 	 Sm: 0 	 T: memcpy_h2d(1.758947)
F: 28451464----T: 28454069 	 St: 80445000 Sz: 4096 	 Sm: 0 	 T: write_back(1.758947)
F: 28453552----T: 28456157 	 St: 8050d000 Sz: 4096 	 Sm: 0 	 T: memcpy_h2d(1.758947)
F: 28454069----T: 28456674 	 St: 80725000 Sz: 4096 	 Sm: 0 	 T: write_back(1.758947)
F: 28456157----T: 28458762 	 St: 806c9000 Sz: 4096 	 Sm: 0 	 T: memcpy_h2d(1.758947)
F: 28456674----T: 28459279 	 St: 80672000 Sz: 4096 	 Sm: 0 	 T: write_back(1.758947)
F: 28458762----T: 28461367 	 St: 8052d000 Sz: 4096 	 Sm: 0 	 T: memcpy_h2d(1.758947)
F: 28461367----T: 28463972 	 St: 8075d000 Sz: 4096 	 Sm: 0 	 T: memcpy_h2d(1.758947)
F: 28461457----T: 28464062 	 St: 8075f000 Sz: 4096 	 Sm: 0 	 T: write_back(1.758947)
F: 28463972----T: 28466577 	 St: 804aa000 Sz: 4096 	 Sm: 0 	 T: memcpy_h2d(1.758947)
F: 28464488----T: 28467093 	 St: 80628000 Sz: 4096 	 Sm: 0 	 T: write_back(1.758947)
F: 28466577----T: 28469182 	 St: 804cb000 Sz: 4096 	 Sm: 0 	 T: memcpy_h2d(1.758947)
F: 28467093----T: 28469698 	 St: 80449000 Sz: 4096 	 Sm: 0 	 T: write_back(1.758947)
F: 28469182----T: 28471787 	 St: 806fb000 Sz: 4096 	 Sm: 0 	 T: memcpy_h2d(1.758947)
F: 28469698----T: 28472303 	 St: 805cb000 Sz: 4096 	 Sm: 0 	 T: write_back(1.758947)
F: 28471787----T: 28474392 	 St: 806ea000 Sz: 4096 	 Sm: 0 	 T: memcpy_h2d(1.758947)
F: 28472303----T: 28474908 	 St: 803da000 Sz: 4096 	 Sm: 0 	 T: write_back(1.758947)
F: 28474392----T: 28476997 	 St: 8055f000 Sz: 4096 	 Sm: 0 	 T: memcpy_h2d(1.758947)
F: 28476577----T: 28479182 	 St: 8041f000 Sz: 4096 	 Sm: 0 	 T: write_back(1.758947)
F: 28476997----T: 28479602 	 St: 8077f000 Sz: 4096 	 Sm: 0 	 T: memcpy_h2d(1.758947)
F: 28479602----T: 28482207 	 St: 80757000 Sz: 4096 	 Sm: 0 	 T: memcpy_h2d(1.758947)
F: 28482207----T: 28484812 	 St: 80756000 Sz: 4096 	 Sm: 0 	 T: memcpy_h2d(1.758947)
F: 28484812----T: 28487417 	 St: 80585000 Sz: 4096 	 Sm: 0 	 T: memcpy_h2d(1.758947)
F: 28487417----T: 28490022 	 St: 80772000 Sz: 4096 	 Sm: 0 	 T: memcpy_h2d(1.758947)
F: 28488084----T: 28490689 	 St: 8064e000 Sz: 4096 	 Sm: 0 	 T: write_back(1.758947)
F: 28490022----T: 28492627 	 St: 80763000 Sz: 4096 	 Sm: 0 	 T: memcpy_h2d(1.758947)
F: 28492202----T: 28494807 	 St: 8075e000 Sz: 4096 	 Sm: 0 	 T: write_back(1.758947)
F: 28492627----T: 28495232 	 St: 804d9000 Sz: 4096 	 Sm: 0 	 T: memcpy_h2d(1.758947)
F: 28494823----T: 28497428 	 St: 806ee000 Sz: 4096 	 Sm: 0 	 T: write_back(1.758947)
F: 28495232----T: 28497837 	 St: 8054d000 Sz: 4096 	 Sm: 0 	 T: memcpy_h2d(1.758947)
F: 28497837----T: 28500442 	 St: 8056d000 Sz: 4096 	 Sm: 0 	 T: memcpy_h2d(1.758947)
F: 28500442----T: 28503047 	 St: 8057d000 Sz: 4096 	 Sm: 0 	 T: memcpy_h2d(1.758947)
F: 28503047----T: 28505652 	 St: 8079d000 Sz: 4096 	 Sm: 0 	 T: memcpy_h2d(1.758947)
F: 28505652----T: 28508257 	 St: 8070a000 Sz: 4096 	 Sm: 0 	 T: memcpy_h2d(1.758947)
F: 28508257----T: 28510862 	 St: 80786000 Sz: 4096 	 Sm: 0 	 T: memcpy_h2d(1.758947)
F: 28509857----T: 28512462 	 St: 8062f000 Sz: 4096 	 Sm: 0 	 T: write_back(1.758947)
F: 28510862----T: 28513467 	 St: 80792000 Sz: 4096 	 Sm: 0 	 T: memcpy_h2d(1.758947)
F: 28512462----T: 28515067 	 St: 8061d000 Sz: 4096 	 Sm: 0 	 T: write_back(1.758947)
F: 28513467----T: 28516072 	 St: 80783000 Sz: 4096 	 Sm: 0 	 T: memcpy_h2d(1.758947)
F: 28515067----T: 28517672 	 St: 803f6000 Sz: 4096 	 Sm: 0 	 T: write_back(1.758947)
F: 28516072----T: 28518677 	 St: 8050a000 Sz: 4096 	 Sm: 0 	 T: memcpy_h2d(1.758947)
F: 28517672----T: 28520277 	 St: 8044a000 Sz: 4096 	 Sm: 0 	 T: write_back(1.758947)
F: 28518677----T: 28521282 	 St: 8051a000 Sz: 4096 	 Sm: 0 	 T: memcpy_h2d(1.758947)
F: 28520277----T: 28522882 	 St: 80745000 Sz: 4096 	 Sm: 0 	 T: write_back(1.758947)
F: 28521282----T: 28523887 	 St: 80576000 Sz: 4096 	 Sm: 0 	 T: memcpy_h2d(1.758947)
F: 28522882----T: 28525487 	 St: 80681000 Sz: 4096 	 Sm: 0 	 T: write_back(1.758947)
F: 28523887----T: 28526492 	 St: 80796000 Sz: 4096 	 Sm: 0 	 T: memcpy_h2d(1.758947)
F: 28525487----T: 28528092 	 St: 805dd000 Sz: 4096 	 Sm: 0 	 T: write_back(1.758947)
F: 28526492----T: 28529097 	 St: 807a2000 Sz: 4096 	 Sm: 0 	 T: memcpy_h2d(1.758947)
F: 28528092----T: 28530697 	 St: 80669000 Sz: 4096 	 Sm: 0 	 T: write_back(1.758947)
F: 28529097----T: 28531702 	 St: 80579000 Sz: 4096 	 Sm: 0 	 T: memcpy_h2d(1.758947)
F: 28530697----T: 28533302 	 St: 80702000 Sz: 4096 	 Sm: 0 	 T: write_back(1.758947)
F: 28531702----T: 28534307 	 St: 80589000 Sz: 4096 	 Sm: 0 	 T: memcpy_h2d(1.758947)
F: 28533302----T: 28535907 	 St: 80494000 Sz: 4096 	 Sm: 0 	 T: write_back(1.758947)
F: 28534307----T: 28536912 	 St: 8058b000 Sz: 4096 	 Sm: 0 	 T: memcpy_h2d(1.758947)
F: 28536912----T: 28539517 	 St: 80583000 Sz: 4096 	 Sm: 0 	 T: memcpy_h2d(1.758947)
F: 28539517----T: 28542122 	 St: 80593000 Sz: 4096 	 Sm: 0 	 T: memcpy_h2d(1.758947)
F: 28542415----T: 28545020 	 St: 0 Sz: 4096 	 Sm: 0 	 T: device_sync(1.758947)
F: 28542415----T: 28550655 	 St: 0 Sz: 61440 	 Sm: 0 	 T: device_sync(5.563808)
F: 28553260----T: 28555865 	 St: 0 Sz: 4096 	 Sm: 0 	 T: device_sync(1.758947)
F: 28553260----T: 28561500 	 St: 0 Sz: 61440 	 Sm: 0 	 T: device_sync(5.563808)
F: 28564105----T: 28566710 	 St: 0 Sz: 4096 	 Sm: 0 	 T: device_sync(1.758947)
F: 28564105----T: 28579800 	 St: 0 Sz: 126976 	 Sm: 0 	 T: device_sync(10.597569)
F: 28582405----T: 28585010 	 St: 0 Sz: 4096 	 Sm: 0 	 T: device_sync(1.758947)
F: 28582405----T: 28613128 	 St: 0 Sz: 258048 	 Sm: 0 	 T: device_sync(20.744766)
F: 28615733----T: 28618338 	 St: 0 Sz: 4096 	 Sm: 0 	 T: device_sync(1.758947)
F: 28615733----T: 28676569 	 St: 0 Sz: 520192 	 Sm: 0 	 T: device_sync(41.077652)
F: 28679174----T: 28681779 	 St: 0 Sz: 4096 	 Sm: 0 	 T: device_sync(1.758947)
F: 28679174----T: 28800263 	 St: 0 Sz: 1044480 	 Sm: 0 	 T: device_sync(81.761650)
F: 28802868----T: 28805473 	 St: 0 Sz: 4096 	 Sm: 0 	 T: device_sync(1.758947)
F: 28802868----T: 28811108 	 St: 0 Sz: 61440 	 Sm: 0 	 T: device_sync(5.563808)
F: 28813713----T: 28816318 	 St: 0 Sz: 4096 	 Sm: 0 	 T: device_sync(1.758947)
F: 28813713----T: 28821953 	 St: 0 Sz: 61440 	 Sm: 0 	 T: device_sync(5.563808)
F: 28824558----T: 28827163 	 St: 0 Sz: 4096 	 Sm: 0 	 T: device_sync(1.758947)
F: 28824558----T: 28840253 	 St: 0 Sz: 126976 	 Sm: 0 	 T: device_sync(10.597569)
F: 28842858----T: 28845463 	 St: 0 Sz: 4096 	 Sm: 0 	 T: device_sync(1.758947)
F: 28842858----T: 28873581 	 St: 0 Sz: 258048 	 Sm: 0 	 T: device_sync(20.744766)
F: 28876186----T: 28878791 	 St: 0 Sz: 4096 	 Sm: 0 	 T: device_sync(1.758947)
F: 28876186----T: 28937022 	 St: 0 Sz: 520192 	 Sm: 0 	 T: device_sync(41.077652)
F: 28939627----T: 28942232 	 St: 0 Sz: 4096 	 Sm: 0 	 T: device_sync(1.758947)
F: 28939627----T: 28953449 	 St: 0 Sz: 110592 	 Sm: 0 	 T: device_sync(9.332883)
Tot_prefetch_time: 0(cycle), 0.000000(us)
Tot_kernel_exec_time: 19656415(cycle), 13272.394531(us)
Tot_kernel_exec_time_and_fault_time: 510430195(cycle), 344652.406250(us)
Tot_memcpy_h2d_time: 19550399(cycle), 13200.810547(us)
Tot_memcpy_d2h_time: 0(cycle), 0.000000(us)
Tot_memcpy_time: 19550399(cycle), 13200.810547(us)
Tot_devicesync_time: 413639(cycle), 279.297089(us)
Tot_writeback_time: 15906130(cycle), 10740.127930(us)
Tot_memcpy_d2h_sync_wb_time: 16319769(cycle), 11019.425781(us)
GPGPU-Sim: *** exit detected ***
