

        *** GPGPU-Sim Simulator Version 3.2.2  [build gpgpu-sim_git-commit-1c1adf09f9d1bccf70ff97255c2b46b40ff0e800_modified_0] ***


GPGPU-Sim PTX: simulation mode 0 (can change with PTX_SIM_MODE_FUNC environment variable:
               1=functional simulation only, 0=detailed performance simulator)
GPGPU-Sim: Configuration options:

-network_mode                           1 # Interconnection network mode
-inter_config_file   config_fermi_islip.icnt # Interconnection network config file
-gpgpu_ptx_use_cuobjdump                    1 # Use cuobjdump to extract ptx and sass from binaries
-gpgpu_experimental_lib_support                    0 # Try to extract code from cuda libraries [Broken because of unknown cudaGetExportTable]
-gpgpu_ptx_convert_to_ptxplus                    0 # Convert SASS (native ISA) to ptxplus and run ptxplus
-gpgpu_ptx_force_max_capability                   20 # Force maximum compute capability
-gpgpu_ptx_inst_debug_to_file                    0 # Dump executed instructions' debug information to file
-gpgpu_ptx_inst_debug_file       inst_debug.txt # Executed instructions' debug output file
-gpgpu_ptx_inst_debug_thread_uid                    1 # Thread UID for executed instructions' debug output
-gpgpu_simd_model                       1 # 1 = post-dominator
-gpgpu_shader_core_pipeline              2048:32 # shader core pipeline config, i.e., {<nthread>:<warpsize>}
-gpgpu_tex_cache:l1  16:128:24,L:R:m:N:L,F:128:4,128:2 # per-shader L1 texture cache  (READ-ONLY) config  {<nsets>:<bsize>:<assoc>,<rep>:<wr>:<alloc>:<wr_alloc>,<mshr>:<N>:<merge>,<mq>:<rf>}
-gpgpu_const_cache:l1 128:64:2,L:R:f:N:L,A:2:64,4 # per-shader L1 constant memory cache  (READ-ONLY) config  {<nsets>:<bsize>:<assoc>,<rep>:<wr>:<alloc>:<wr_alloc>,<mshr>:<N>:<merge>,<mq>} 
-gpgpu_cache:il1     8:128:4,L:R:f:N:L,A:2:48,4 # shader L1 instruction cache config  {<nsets>:<bsize>:<assoc>,<rep>:<wr>:<alloc>:<wr_alloc>,<mshr>:<N>:<merge>,<mq>} 
-gpgpu_cache:dl1     64:128:6,L:L:m:N:H,A:128:8,8 # per-shader L1 data cache config  {<nsets>:<bsize>:<assoc>,<rep>:<wr>:<alloc>:<wr_alloc>,<mshr>:<N>:<merge>,<mq> | none}
-gpgpu_cache:dl1PrefL1                 none # per-shader L1 data cache config  {<nsets>:<bsize>:<assoc>,<rep>:<wr>:<alloc>:<wr_alloc>,<mshr>:<N>:<merge>,<mq> | none}
-gpgpu_cache:dl1PrefShared                 none # per-shader L1 data cache config  {<nsets>:<bsize>:<assoc>,<rep>:<wr>:<alloc>:<wr_alloc>,<mshr>:<N>:<merge>,<mq> | none}
-gmem_skip_L1D                          1 # global memory access skip L1D cache (implements -Xptxas -dlcm=cg, default=no skip)
-gpgpu_perfect_mem                      0 # enable perfect memory mode (no cache miss)
-n_regfile_gating_group                    4 # group of lanes that should be read/written together)
-gpgpu_clock_gated_reg_file                    0 # enable clock gated reg file for power calculations
-gpgpu_clock_gated_lanes                    0 # enable clock gated lanes for power calculations
-gpgpu_shader_registers                65536 # Number of registers per shader core. Limits number of concurrent CTAs. (default 8192)
-gpgpu_shader_cta                      32 # Maximum number of concurrent CTAs in shader (default 8)
-gpgpu_num_cta_barriers                   16 # Maximum number of named barriers per CTA (default 16)
-gpgpu_n_clusters                      28 # number of processing clusters
-gpgpu_n_cores_per_cluster                    1 # number of simd cores per cluster
-gpgpu_n_cluster_ejection_buffer_size                    8 # number of packets in ejection buffer
-gpgpu_n_ldst_response_buffer_size                    2 # number of response packets in ld/st unit ejection buffer
-gpgpu_shmem_size                   16384 # Size of shared memory per shader core (default 16kB)
-gpgpu_shmem_size                   98304 # Size of shared memory per shader core (default 16kB)
-gpgpu_shmem_size_PrefL1                16384 # Size of shared memory per shader core (default 16kB)
-gpgpu_shmem_size_PrefShared                16384 # Size of shared memory per shader core (default 16kB)
-gpgpu_shmem_num_banks                   32 # Number of banks in the shared memory in each shader core (default 16)
-gpgpu_shmem_limited_broadcast                    0 # Limit shared memory to do one broadcast per cycle (default on)
-gpgpu_shmem_warp_parts                    1 # Number of portions a warp is divided into for shared memory bank conflict check 
-gpgpu_warpdistro_shader                   -1 # Specify which shader core to collect the warp size distribution from
-gpgpu_warp_issue_shader                    0 # Specify which shader core to collect the warp issue distribution from
-gpgpu_local_mem_map                    1 # Mapping from local memory space address to simulated GPU physical address space (default = enabled)
-gpgpu_num_reg_banks                   32 # Number of register banks (default = 8)
-gpgpu_reg_bank_use_warp_id                    0 # Use warp ID in mapping registers to banks (default = off)
-gpgpu_operand_collector_num_units_sp                   20 # number of collector units (default = 4)
-gpgpu_operand_collector_num_units_sfu                    4 # number of collector units (default = 4)
-gpgpu_operand_collector_num_units_mem                    8 # number of collector units (default = 2)
-gpgpu_operand_collector_num_units_gen                    0 # number of collector units (default = 0)
-gpgpu_operand_collector_num_in_ports_sp                    4 # number of collector unit in ports (default = 1)
-gpgpu_operand_collector_num_in_ports_sfu                    1 # number of collector unit in ports (default = 1)
-gpgpu_operand_collector_num_in_ports_mem                    1 # number of collector unit in ports (default = 1)
-gpgpu_operand_collector_num_in_ports_gen                    0 # number of collector unit in ports (default = 0)
-gpgpu_operand_collector_num_out_ports_sp                    4 # number of collector unit in ports (default = 1)
-gpgpu_operand_collector_num_out_ports_sfu                    1 # number of collector unit in ports (default = 1)
-gpgpu_operand_collector_num_out_ports_mem                    1 # number of collector unit in ports (default = 1)
-gpgpu_operand_collector_num_out_ports_gen                    0 # number of collector unit in ports (default = 0)
-gpgpu_coalesce_arch                   13 # Coalescing arch (default = 13, anything else is off for now)
-gpgpu_num_sched_per_core                    2 # Number of warp schedulers per core
-gpgpu_max_insn_issue_per_warp                    2 # Max number of instructions that can be issued per warp in one cycle by scheduler
-gpgpu_simt_core_sim_order                    1 # Select the simulation order of cores in a cluster (0=Fix, 1=Round-Robin)
-gpgpu_pipeline_widths        4,1,1,4,1,1,6 # Pipeline widths ID_OC_SP,ID_OC_SFU,ID_OC_MEM,OC_EX_SP,OC_EX_SFU,OC_EX_MEM,EX_WB
-gpgpu_num_sp_units                     4 # Number of SP units (default=1)
-gpgpu_num_sfu_units                    1 # Number of SF units (default=1)
-gpgpu_num_mem_units                    1 # Number if ldst units (default=1) WARNING: not hooked up to anything
-gpgpu_scheduler                      gto # Scheduler configuration: < lrr | gto | two_level_active > If two_level_active:<num_active_warps>:<inner_prioritization>:<outer_prioritization>For complete list of prioritization values see shader.h enum scheduler_prioritization_typeDefault: gto
-gpgpu_concurrent_kernel_sm                    0 # Support concurrent kernels on a SM (default = disabled)
-tlb_size                            4096 # Number of tlb entries per SM.
-gpgpu_dram_scheduler                    1 # 0 = fifo, 1 = FR-FCFS (defaul)
-gpgpu_dram_partition_queues              8:8:8:8 # i2$:$2d:d2$:$2i
-l2_ideal                               0 # Use a ideal L2 cache that always hit
-gpgpu_cache:dl2     64:128:16,L:B:m:W:L,A:1024:1024,4:0,32 # unified banked L2 data cache config  {<nsets>:<bsize>:<assoc>,<rep>:<wr>:<alloc>:<wr_alloc>,<mshr>:<N>:<merge>,<mq>}
-gpgpu_cache:dl2_texture_only                    0 # L2 cache used for texture only
-gpgpu_n_mem                           11 # number of memory modules (e.g. memory controllers) in gpu
-gpgpu_n_sub_partition_per_mchannel                    2 # number of memory subpartition in each memory module
-gpgpu_n_mem_per_ctrlr                    1 # number of memory chips per memory controller
-gpgpu_memlatency_stat                   14 # track and display latency statistics 0x2 enables MC, 0x4 enables queue logs
-gpgpu_frfcfs_dram_sched_queue_size                   64 # 0 = unlimited (default); # entries per chip
-gpgpu_dram_return_queue_size                  116 # 0 = unlimited (default); # entries per chip
-gpgpu_dram_buswidth                    4 # default = 4 bytes (8 bytes per cycle at DDR)
-gpgpu_dram_burst_length                    8 # Burst length of each DRAM request (default = 4 data bus cycle)
-dram_data_command_freq_ratio                    4 # Frequency ratio between DRAM data bus and command bus (default = 2 times, i.e. DDR)
-gpgpu_dram_timing_opt nbk=16:CCD=2:RRD=6:RCD=12:RAS=28:RP=12:RC=40: CL=12:WL=4:CDLR=5:WR=12:nbkgrp=1:CCDL=0:RTPL=0 # DRAM timing parameters = {nbk:tCCD:tRRD:tRCD:tRAS:tRP:tRC:CL:WL:tCDLR:tWR:nbkgrp:tCCDL:tRTPL}
-rop_latency                          120 # ROP queue latency (default 85)
-dram_latency                         100 # DRAM latency (default 30)
-gpgpu_mem_addr_mapping dramid@8;00000000.00000000.00000000.00000000.0000RRRR.RRRRRRRR.RBBBCCCC.BCCSSSSS # mapping memory address to dram model {dramid@<start bit>;<memory address map>}
-gpgpu_mem_addr_test                    0 # run sweep test to check address mapping for aliased address
-gpgpu_mem_address_mask                    1 # 0 = old addressing mask, 1 = new addressing mask, 2 = new add. mask + flipped bank sel and chip sel bits
-gpuwattch_xml_file  gpuwattch_geforcegtx1080ti.xml # GPUWattch XML file
-power_simulation_enabled                    1 # Turn on power simulator (1=On, 0=Off)
-power_per_cycle_dump                    0 # Dump detailed power output each cycle
-power_trace_enabled                    0 # produce a file for the power trace (1=On, 0=Off)
-power_trace_zlevel                     6 # Compression level of the power trace output log (0=no comp, 9=highest)
-steady_power_levels_enabled                    0 # produce a file for the steady power levels (1=On, 0=Off)
-steady_state_definition                  8:4 # allowed deviation:number of samples
-gpgpu_max_cycle                        0 # terminates gpu simulation early (0 = no limit)
-gpgpu_max_insn                         0 # terminates gpu simulation early (0 = no limit)
-gpgpu_max_cta                          0 # terminates gpu simulation early (0 = no limit)
-gpgpu_runtime_stat                   500 # display runtime statistics such as dram utilization {<freq>:<flag>}
-liveness_message_freq                    1 # Minimum number of seconds between simulation liveness messages (0 = always print)
-gpgpu_flush_l1_cache                    0 # Flush L1 cache at the end of each kernel call
-gpgpu_flush_l2_cache                    0 # Flush L2 cache at the end of each kernel call
-gpgpu_deadlock_detect                    0 # Stop the simulation at deadlock (1=on (default), 0=off)
-gpgpu_ptx_instruction_classification                    0 # if enabled will classify ptx instruction types per kernel (Max 255 kernels now)
-gpgpu_ptx_sim_mode                     0 # Select between Performance (default) or Functional simulation (1)
-gpgpu_clock_domains 1481.0:2962.0:1481.0:2750.0 # Clock Domain Frequencies in MhZ {<Core Clock>:<ICNT Clock>:<L2 Clock>:<DRAM Clock>}
-gpgpu_max_concurrent_kernel                    8 # maximum kernels that can run concurrently on GPU
-gpgpu_cflog_interval                    0 # Interval between each snapshot in control flow logger
-visualizer_enabled                     0 # Turn on visualizer output (1=On, 0=Off)
-visualizer_outputfile                 NULL # Specifies the output log file for visualizer
-visualizer_zlevel                      6 # Compression level of the visualizer output log (0=no comp, 9=highest)
-trace_enabled                          0 # Turn on traces
-trace_components                    none # comma seperated list of traces to enable. Complete list found in trace_streams.tup. Default none
-trace_sampling_core                    0 # The core which is printed using CORE_DPRINTF. Default 0
-trace_sampling_memory_partition                   -1 # The memory partition which is printed using MEMPART_DPRINTF. Default -1 (i.e. all)
-gddr_size                      10.9091MB # Size of GDDR in MB/GB.(GLOBAL_HEAP_START, GLOBAL_HEAP_START + gddr_size) would be used for unmanged memory, (GLOBAL_HEAP_START + gddr_size, GLOBAL_HEAP_START + gddr_size*2) would be used for managed memory. 
-page_table_walk_latency                  100 # Average page table walk latency (in core cycle).
-eviction_policy                        1 # Select page eviction policy
-invalidate_clean                       0 # Should directly invalidate clean pages
-reserve_accessed_page_percent                    0 # Percentage of accessed pages reserved from eviction in hope that they will be accessed in next iteration.
-percentage_of_free_page_buffer                    0 # Percentage of free page buffer to trigger the page eviction.
-page_size                            4KB # GDDR page size, only 4KB/2MB avaliable.
-pcie_bandwidth                  16.0GB/s # PCI-e bandwidth per direction, in GB/s.
-enable_dma                             0 # Enable direct access to CPU memory
-multiply_dma_penalty                    2 # Oversubscription Multiplicative Penalty Factor for Adaptive DMA
-migrate_threshold                      8 # Access counter threshold for migrating the page from cpu to gpu
-sim_prof_enable                        1 # Enable gpgpu-sim profiler
-hardware_prefetch                      1 # Select gpgpu-sim hardware prefetcher
-hwprefetch_oversub                     1 # Select gpgpu-sim hardware prefetcher under over-subscription
-page_fault_latency                 66645 # Average fault latency (in core cycle).
-enable_accurate_simulation                    0 # Enable page fault functional simulation.
-enable_ptx_file_line_stats                    1 # Turn on PTX source line statistic profiling. (1 = On)
-ptx_line_stats_filename gpgpu_inst_stats.txt # Output file for PTX source line statistics.
-gpgpu_kernel_launch_latency               222150 # Kernel launch latency in cycles. Default: 0
-gpgpu_cdp_enabled                      0 # Turn on CDP
-save_embedded_ptx                      0 # saves ptx files embedded in binary as <n>.ptx
-keep                                   0 # keep intermediate files created by GPGPU-Sim when interfacing with external programs
-gpgpu_ptx_save_converted_ptxplus                    0 # Saved converted ptxplus to a file
-ptx_opcode_latency_int         4,13,4,5,145 # Opcode latencies for integers <ADD,MAX,MUL,MAD,DIV>Default 1,1,19,25,145
-ptx_opcode_latency_fp          4,13,4,5,39 # Opcode latencies for single precision floating points <ADD,MAX,MUL,MAD,DIV>Default 1,1,1,1,30
-ptx_opcode_latency_dp         8,19,8,8,330 # Opcode latencies for double precision floating points <ADD,MAX,MUL,MAD,DIV>Default 8,8,8,8,335
-ptx_opcode_initiation_int            1,2,2,2,8 # Opcode initiation intervals for integers <ADD,MAX,MUL,MAD,DIV>Default 1,1,4,4,32
-ptx_opcode_initiation_fp            1,2,1,1,4 # Opcode initiation intervals for single precision floating points <ADD,MAX,MUL,MAD,DIV>Default 1,1,1,1,5
-ptx_opcode_initiation_dp          1,2,1,1,130 # Opcode initiation intervals for double precision floating points <ADD,MAX,MUL,MAD,DIV>Default 8,8,8,8,130
-cdp_latency         7200,8000,100,12000,1600 # CDP API latency <cudaStreamCreateWithFlags, cudaGetParameterBufferV2_init_perWarp, cudaGetParameterBufferV2_perKernel, cudaLaunchDeviceV2_init_perWarp, cudaLaunchDevicV2_perKernel>Default 7200,8000,100,12000,1600
DRAM Timing Options:
nbk                                    16 # number of banks
CCD                                     2 # column to column delay
RRD                                     6 # minimal delay between activation of rows in different banks
RCD                                    12 # row to column delay
RAS                                    28 # time needed to activate row
RP                                     12 # time needed to precharge (deactivate) row
RC                                     40 # row cycle time
CDLR                                    5 # switching from write to read (changes tWTR)
WR                                     12 # last data-in to row precharge
CL                                     12 # CAS latency
WL                                      4 # Write latency
nbkgrp                                  1 # number of bank groups
CCDL                                    0 # column to column delay between accesses to different bank groups
RTPL                                    0 # read to precharge delay between accesses to different bank groups
Total number of memory sub partition = 22
addr_dec_mask[CHIP]  = 0000000000000000 	high:64 low:0
addr_dec_mask[BK]    = 0000000000007080 	high:15 low:7
addr_dec_mask[ROW]   = 000000000fff8000 	high:28 low:15
addr_dec_mask[COL]   = 0000000000000f7f 	high:12 low:0
addr_dec_mask[BURST] = 000000000000001f 	high:5 low:0
sub_partition_id_mask = 0000000000000080
GPGPU-Sim uArch: clock freqs: 1481000000.000000:2962000000.000000:1481000000.000000:2750000000.000000
GPGPU-Sim uArch: clock periods: 0.00000000067521944632:0.00000000033760972316:0.00000000067521944632:0.00000000036363636364
*** Initializing Memory Statistics ***
GPGPU-Sim uArch: interconnect node map (shaderID+MemID to icntID)
GPGPU-Sim uArch: Memory nodes ID start from index: 28
GPGPU-Sim uArch:    0   1   2   3   4   5   6
GPGPU-Sim uArch:    7   8   9  10  11  12  13
GPGPU-Sim uArch:   14  15  16  17  18  19  20
GPGPU-Sim uArch:   21  22  23  24  25  26  27
GPGPU-Sim uArch:   28  29  30  31  32  33  34
GPGPU-Sim uArch:   35  36  37  38  39  40  41
GPGPU-Sim uArch:   42  43  44  45  46  47  48
GPGPU-Sim uArch:   49
GPGPU-Sim uArch: interconnect node reverse map (icntID to shaderID+MemID)
GPGPU-Sim uArch: Memory nodes start from ID: 28
GPGPU-Sim uArch:    0   1   2   3   4   5   6
GPGPU-Sim uArch:    7   8   9  10  11  12  13
GPGPU-Sim uArch:   14  15  16  17  18  19  20
GPGPU-Sim uArch:   21  22  23  24  25  26  27
GPGPU-Sim uArch:   28  29  30  31  32  33  34
GPGPU-Sim uArch:   35  36  37  38  39  40  41
GPGPU-Sim uArch:   42  43  44  45  46  47  48
GPGPU-Sim uArch:   49
503228a84c5acce04febe5a767a6866d  /root/gpgpu-sim_UVMSmart/benchmarks/Managed/hotspot/hotspot
GPGPU-Sim uArch: performance model initialization complete.
GPGPU-Sim PTX: __cudaRegisterFatBinary, fat_cubin_handle = 1, filename=default
self exe links to: /root/gpgpu-sim_UVMSmart/benchmarks/Managed/hotspot/hotspot
Running md5sum using "md5sum /root/gpgpu-sim_UVMSmart/benchmarks/Managed/hotspot/hotspot "
Parsing file _cuobjdump_complete_output_G8AFob
######### cuobjdump parser ########
## Adding new section ELF
Adding arch: sm_20
Adding identifier: default
## Adding new section ELF
Adding arch: sm_20
Adding identifier: default
## Adding new section PTX
Adding ptx filename: _cuobjdump_1.ptx
Adding arch: sm_20
Adding identifier: default
Done parsing!!!
GPGPU-Sim PTX: __cudaRegisterFunction _Z14calculate_tempiPfS_S_iiiiffffff : hostFun 0x0x401ae2, fat_cubin_handle = 1
GPGPU-Sim PTX: allocating shared region for "_Z14calculate_tempiPfS_S_iiiiffffff$__cuda_local_var_16165_39_non_const_temp_on_cuda" from 0x0 to 0x400 (shared memory space)
GPGPU-Sim PTX: allocating shared region for "_Z14calculate_tempiPfS_S_iiiiffffff$__cuda_local_var_16166_39_non_const_power_on_cuda" from 0x400 to 0x800 (shared memory space)
GPGPU-Sim PTX: allocating shared region for "_Z14calculate_tempiPfS_S_iiiiffffff$__cuda_local_var_16167_39_non_const_temp_t" from 0x800 to 0xc00 (shared memory space)
GPGPU-Sim PTX: instruction assembly for function '_Z14calculate_tempiPfS_S_iiiiffffff'...   done.
GPGPU-Sim PTX: finding reconvergence points for '_Z14calculate_tempiPfS_S_iiiiffffff'...
GPGPU-Sim PTX: Finding dominators for '_Z14calculate_tempiPfS_S_iiiiffffff'...
GPGPU-Sim PTX: Finding immediate dominators for '_Z14calculate_tempiPfS_S_iiiiffffff'...
GPGPU-Sim PTX: Finding postdominators for '_Z14calculate_tempiPfS_S_iiiiffffff'...
GPGPU-Sim PTX: Finding immediate postdominators for '_Z14calculate_tempiPfS_S_iiiiffffff'...
GPGPU-Sim PTX: pre-decoding instructions for '_Z14calculate_tempiPfS_S_iiiiffffff'...
GPGPU-Sim PTX: reconvergence points for _Z14calculate_tempiPfS_S_iiiiffffff...
GPGPU-Sim PTX:  1 (potential) branch divergence @  PC=0x118 (_1.ptx:82) @!%p7 bra BB0_2;
GPGPU-Sim PTX:    immediate post dominator      @  PC=0x1b8 (_1.ptx:106) bar.sync 0;
GPGPU-Sim PTX:  2 (potential) branch divergence @  PC=0x120 (_1.ptx:83) bra.uni BB0_1;
GPGPU-Sim PTX:    immediate post dominator      @  PC=0x128 (_1.ptx:86) mad.lo.s32 %r27, %r1, %r10, %r2;
GPGPU-Sim PTX:  3 (potential) branch divergence @  PC=0x1c8 (_1.ptx:108) @%p8 bra BB0_11;
GPGPU-Sim PTX:    immediate post dominator      @  PC=0x5b0 (_1.ptx:247) and.b16 %rs7, %rs8, 255;
GPGPU-Sim PTX:  4 (potential) branch divergence @  PC=0x338 (_1.ptx:157) @!%p15 bra BB0_7;
GPGPU-Sim PTX:    immediate post dominator      @  PC=0x538 (_1.ptx:226) bar.sync 0;
GPGPU-Sim PTX:  5 (potential) branch divergence @  PC=0x340 (_1.ptx:158) bra.uni BB0_5;
GPGPU-Sim PTX:    immediate post dominator      @  PC=0x348 (_1.ptx:161) setp.gt.s32%p16, %r23, %r6;
GPGPU-Sim PTX:  6 (potential) branch divergence @  PC=0x3d0 (_1.ptx:178) @%p28 bra BB0_7;
GPGPU-Sim PTX:    immediate post dominator      @  PC=0x538 (_1.ptx:226) bar.sync 0;
GPGPU-Sim PTX:  7 (potential) branch divergence @  PC=0x548 (_1.ptx:228) @%p31 bra BB0_11;
GPGPU-Sim PTX:    immediate post dominator      @  PC=0x5b0 (_1.ptx:247) and.b16 %rs7, %rs8, 255;
GPGPU-Sim PTX:  8 (potential) branch divergence @  PC=0x558 (_1.ptx:231) @%p32 bra BB0_10;
GPGPU-Sim PTX:    immediate post dominator      @  PC=0x590 (_1.ptx:241) bar.sync 0;
GPGPU-Sim PTX:  9 (potential) branch divergence @  PC=0x5a8 (_1.ptx:244) @%p33 bra BB0_4;
GPGPU-Sim PTX:    immediate post dominator      @  PC=0x5b0 (_1.ptx:247) and.b16 %rs7, %rs8, 255;
GPGPU-Sim PTX: 10 (potential) branch divergence @  PC=0x5c0 (_1.ptx:249) @%p34 bra BB0_13;
GPGPU-Sim PTX:    immediate post dominator      @  PC=0x620 (_1.ptx:264) ret;
GPGPU-Sim PTX: ... end of reconvergence points for _Z14calculate_tempiPfS_S_iiiiffffff
GPGPU-Sim PTX: ... done pre-decoding instructions for '_Z14calculate_tempiPfS_S_iiiiffffff'.
GPGPU-Sim PTX: finished parsing EMBEDDED .ptx file _1.ptx
Adding _cuobjdump_1.ptx with cubin handle 1
GPGPU-Sim PTX: extracting embedded .ptx to temporary file "_ptx_Z18K82"
Running: cat _ptx_Z18K82 | sed 's/.version 1.5/.version 1.4/' | sed 's/, texmode_independent//' | sed 's/\(\.extern \.const\[1\] .b8 \w\+\)\[\]/\1\[1\]/' | sed 's/const\[.\]/const\[0\]/g' > _ptx2_8xHRSU
GPGPU-Sim PTX: generating ptxinfo using "$CUDA_INSTALL_PATH/bin/ptxas --gpu-name=sm_20 -v _ptx2_8xHRSU --output-file  /dev/null 2> _ptx_Z18K82info"
GPGPU-Sim PTX: Kernel '_Z14calculate_tempiPfS_S_iiiiffffff' : regs=34, lmem=0, smem=3072, cmem=120
GPGPU-Sim PTX: removing ptxinfo using "rm -f _ptx_Z18K82 _ptx2_8xHRSU _ptx_Z18K82info"
GPGPU-Sim PTX: loading globals with explicit initializers... 
GPGPU-Sim PTX: finished loading globals (0 bytes total).
GPGPU-Sim PTX: loading constants with explicit initializers...  done.
WG size of kernel = 16 X 16
pyramidHeight: 2
gridSize: [1024, 1024]
border:[2, 2]
blockGrid:[86, 86]
targetBlock:[12, 12]
Start computing the transient temperature

GPGPU-Sim PTX: cudaLaunch for 0x0x401ae2 (mode=performance simulation) on stream 0
GPGPU-Sim PTX: pushing kernel '_Z14calculate_tempiPfS_S_iiiiffffff' to stream 0, gridDim= (86,86,1) blockDim = (16,16,1) 
GPGPU-Sim uArch: Shader 1 bind to kernel 1 '_Z14calculate_tempiPfS_S_iiiiffffff'
GPGPU-Sim uArch: CTA/core = 7, limited by: regs
GPGPU-Sim uArch: Shader 2 bind to kernel 1 '_Z14calculate_tempiPfS_S_iiiiffffff'
GPGPU-Sim uArch: Shader 3 bind to kernel 1 '_Z14calculate_tempiPfS_S_iiiiffffff'
GPGPU-Sim uArch: Shader 4 bind to kernel 1 '_Z14calculate_tempiPfS_S_iiiiffffff'
GPGPU-Sim uArch: Shader 5 bind to kernel 1 '_Z14calculate_tempiPfS_S_iiiiffffff'
GPGPU-Sim uArch: Shader 6 bind to kernel 1 '_Z14calculate_tempiPfS_S_iiiiffffff'
GPGPU-Sim uArch: Shader 7 bind to kernel 1 '_Z14calculate_tempiPfS_S_iiiiffffff'
GPGPU-Sim uArch: Shader 8 bind to kernel 1 '_Z14calculate_tempiPfS_S_iiiiffffff'
GPGPU-Sim uArch: Shader 9 bind to kernel 1 '_Z14calculate_tempiPfS_S_iiiiffffff'
GPGPU-Sim uArch: Shader 10 bind to kernel 1 '_Z14calculate_tempiPfS_S_iiiiffffff'
GPGPU-Sim uArch: Shader 11 bind to kernel 1 '_Z14calculate_tempiPfS_S_iiiiffffff'
GPGPU-Sim uArch: Shader 12 bind to kernel 1 '_Z14calculate_tempiPfS_S_iiiiffffff'
GPGPU-Sim uArch: Shader 13 bind to kernel 1 '_Z14calculate_tempiPfS_S_iiiiffffff'
GPGPU-Sim uArch: Shader 14 bind to kernel 1 '_Z14calculate_tempiPfS_S_iiiiffffff'
GPGPU-Sim uArch: Shader 15 bind to kernel 1 '_Z14calculate_tempiPfS_S_iiiiffffff'
GPGPU-Sim uArch: Shader 16 bind to kernel 1 '_Z14calculate_tempiPfS_S_iiiiffffff'
GPGPU-Sim uArch: Shader 17 bind to kernel 1 '_Z14calculate_tempiPfS_S_iiiiffffff'
GPGPU-Sim uArch: Shader 18 bind to kernel 1 '_Z14calculate_tempiPfS_S_iiiiffffff'
GPGPU-Sim uArch: Shader 19 bind to kernel 1 '_Z14calculate_tempiPfS_S_iiiiffffff'
GPGPU-Sim uArch: Shader 20 bind to kernel 1 '_Z14calculate_tempiPfS_S_iiiiffffff'
GPGPU-Sim uArch: Shader 21 bind to kernel 1 '_Z14calculate_tempiPfS_S_iiiiffffff'
GPGPU-Sim uArch: Shader 22 bind to kernel 1 '_Z14calculate_tempiPfS_S_iiiiffffff'
GPGPU-Sim uArch: Shader 23 bind to kernel 1 '_Z14calculate_tempiPfS_S_iiiiffffff'
GPGPU-Sim uArch: Shader 24 bind to kernel 1 '_Z14calculate_tempiPfS_S_iiiiffffff'
GPGPU-Sim uArch: Shader 25 bind to kernel 1 '_Z14calculate_tempiPfS_S_iiiiffffff'
GPGPU-Sim uArch: Shader 26 bind to kernel 1 '_Z14calculate_tempiPfS_S_iiiiffffff'
GPGPU-Sim uArch: Shader 27 bind to kernel 1 '_Z14calculate_tempiPfS_S_iiiiffffff'
GPGPU-Sim uArch: Shader 0 bind to kernel 1 '_Z14calculate_tempiPfS_S_iiiiffffff'
GPGPU-Sim uArch: Shader 1 bind to kernel 1 '_Z14calculate_tempiPfS_S_iiiiffffff'
GPGPU-Sim uArch: Shader 2 bind to kernel 1 '_Z14calculate_tempiPfS_S_iiiiffffff'
GPGPU-Sim uArch: Shader 3 bind to kernel 1 '_Z14calculate_tempiPfS_S_iiiiffffff'
GPGPU-Sim uArch: Shader 4 bind to kernel 1 '_Z14calculate_tempiPfS_S_iiiiffffff'
GPGPU-Sim uArch: Shader 7 bind to kernel 1 '_Z14calculate_tempiPfS_S_iiiiffffff'
GPGPU-Sim uArch: Shader 13 bind to kernel 1 '_Z14calculate_tempiPfS_S_iiiiffffff'
GPGPU-Sim uArch: Shader 15 bind to kernel 1 '_Z14calculate_tempiPfS_S_iiiiffffff'
GPGPU-Sim uArch: Shader 17 bind to kernel 1 '_Z14calculate_tempiPfS_S_iiiiffffff'
GPGPU-Sim uArch: Shader 18 bind to kernel 1 '_Z14calculate_tempiPfS_S_iiiiffffff'
GPGPU-Sim uArch: Shader 21 bind to kernel 1 '_Z14calculate_tempiPfS_S_iiiiffffff'
GPGPU-Sim uArch: Shader 24 bind to kernel 1 '_Z14calculate_tempiPfS_S_iiiiffffff'
GPGPU-Sim uArch: Shader 25 bind to kernel 1 '_Z14calculate_tempiPfS_S_iiiiffffff'
GPGPU-Sim uArch: Shader 27 bind to kernel 1 '_Z14calculate_tempiPfS_S_iiiiffffff'
GPGPU-Sim uArch: Shader 0 bind to kernel 1 '_Z14calculate_tempiPfS_S_iiiiffffff'
GPGPU-Sim uArch: Shader 14 bind to kernel 1 '_Z14calculate_tempiPfS_S_iiiiffffff'
GPGPU-Sim uArch: Shader 15 bind to kernel 1 '_Z14calculate_tempiPfS_S_iiiiffffff'
GPGPU-Sim uArch: Shader 18 bind to kernel 1 '_Z14calculate_tempiPfS_S_iiiiffffff'
GPGPU-Sim uArch: Shader 22 bind to kernel 1 '_Z14calculate_tempiPfS_S_iiiiffffff'
GPGPU-Sim uArch: Shader 23 bind to kernel 1 '_Z14calculate_tempiPfS_S_iiiiffffff'
GPGPU-Sim uArch: Shader 27 bind to kernel 1 '_Z14calculate_tempiPfS_S_iiiiffffff'
GPGPU-Sim uArch: Shader 4 bind to kernel 1 '_Z14calculate_tempiPfS_S_iiiiffffff'
GPGPU-Sim uArch: Shader 8 bind to kernel 1 '_Z14calculate_tempiPfS_S_iiiiffffff'
GPGPU-Sim uArch: Shader 11 bind to kernel 1 '_Z14calculate_tempiPfS_S_iiiiffffff'
GPGPU-Sim uArch: Shader 12 bind to kernel 1 '_Z14calculate_tempiPfS_S_iiiiffffff'
GPGPU-Sim uArch: Shader 13 bind to kernel 1 '_Z14calculate_tempiPfS_S_iiiiffffff'
GPGPU-Sim uArch: Shader 15 bind to kernel 1 '_Z14calculate_tempiPfS_S_iiiiffffff'
GPGPU-Sim uArch: Shader 20 bind to kernel 1 '_Z14calculate_tempiPfS_S_iiiiffffff'
GPGPU-Sim uArch: Shader 24 bind to kernel 1 '_Z14calculate_tempiPfS_S_iiiiffffff'
GPGPU-Sim uArch: Shader 4 bind to kernel 1 '_Z14calculate_tempiPfS_S_iiiiffffff'
GPGPU-Sim uArch: Shader 6 bind to kernel 1 '_Z14calculate_tempiPfS_S_iiiiffffff'
GPGPU-Sim uArch: Shader 12 bind to kernel 1 '_Z14calculate_tempiPfS_S_iiiiffffff'
GPGPU-Sim uArch: Shader 13 bind to kernel 1 '_Z14calculate_tempiPfS_S_iiiiffffff'
GPGPU-Sim uArch: Shader 22 bind to kernel 1 '_Z14calculate_tempiPfS_S_iiiiffffff'
GPGPU-Sim uArch: Shader 24 bind to kernel 1 '_Z14calculate_tempiPfS_S_iiiiffffff'
GPGPU-Sim uArch: Shader 9 bind to kernel 1 '_Z14calculate_tempiPfS_S_iiiiffffff'
GPGPU-Sim uArch: Shader 10 bind to kernel 1 '_Z14calculate_tempiPfS_S_iiiiffffff'
GPGPU-Sim uArch: Shader 11 bind to kernel 1 '_Z14calculate_tempiPfS_S_iiiiffffff'
GPGPU-Sim uArch: Shader 12 bind to kernel 1 '_Z14calculate_tempiPfS_S_iiiiffffff'
GPGPU-Sim uArch: Shader 13 bind to kernel 1 '_Z14calculate_tempiPfS_S_iiiiffffff'
GPGPU-Sim uArch: Shader 15 bind to kernel 1 '_Z14calculate_tempiPfS_S_iiiiffffff'
GPGPU-Sim uArch: Shader 16 bind to kernel 1 '_Z14calculate_tempiPfS_S_iiiiffffff'
GPGPU-Sim uArch: Shader 18 bind to kernel 1 '_Z14calculate_tempiPfS_S_iiiiffffff'
GPGPU-Sim uArch: Shader 19 bind to kernel 1 '_Z14calculate_tempiPfS_S_iiiiffffff'
GPGPU-Sim uArch: Shader 20 bind to kernel 1 '_Z14calculate_tempiPfS_S_iiiiffffff'
GPGPU-Sim uArch: Shader 22 bind to kernel 1 '_Z14calculate_tempiPfS_S_iiiiffffff'
GPGPU-Sim uArch: Shader 24 bind to kernel 1 '_Z14calculate_tempiPfS_S_iiiiffffff'
GPGPU-Sim uArch: Shader 26 bind to kernel 1 '_Z14calculate_tempiPfS_S_iiiiffffff'
GPGPU-Sim uArch: Shader 27 bind to kernel 1 '_Z14calculate_tempiPfS_S_iiiiffffff'
GPGPU-Sim uArch: Shader 0 bind to kernel 1 '_Z14calculate_tempiPfS_S_iiiiffffff'
GPGPU-Sim uArch: Shader 1 bind to kernel 1 '_Z14calculate_tempiPfS_S_iiiiffffff'
GPGPU-Sim uArch: Shader 4 bind to kernel 1 '_Z14calculate_tempiPfS_S_iiiiffffff'
GPGPU-Sim uArch: Shader 6 bind to kernel 1 '_Z14calculate_tempiPfS_S_iiiiffffff'
GPGPU-Sim uArch: Shader 7 bind to kernel 1 '_Z14calculate_tempiPfS_S_iiiiffffff'
GPGPU-Sim uArch: Shader 9 bind to kernel 1 '_Z14calculate_tempiPfS_S_iiiiffffff'
GPGPU-Sim uArch: Shader 14 bind to kernel 1 '_Z14calculate_tempiPfS_S_iiiiffffff'
GPGPU-Sim uArch: Shader 17 bind to kernel 1 '_Z14calculate_tempiPfS_S_iiiiffffff'
GPGPU-Sim uArch: Shader 21 bind to kernel 1 '_Z14calculate_tempiPfS_S_iiiiffffff'
GPGPU-Sim uArch: Shader 23 bind to kernel 1 '_Z14calculate_tempiPfS_S_iiiiffffff'
GPGPU-Sim uArch: Shader 25 bind to kernel 1 '_Z14calculate_tempiPfS_S_iiiiffffff'
GPGPU-Sim uArch: Shader 3 bind to kernel 1 '_Z14calculate_tempiPfS_S_iiiiffffff'
GPGPU-Sim uArch: Shader 5 bind to kernel 1 '_Z14calculate_tempiPfS_S_iiiiffffff'
GPGPU-Sim uArch: Shader 7 bind to kernel 1 '_Z14calculate_tempiPfS_S_iiiiffffff'
GPGPU-Sim uArch: Shader 22 bind to kernel 1 '_Z14calculate_tempiPfS_S_iiiiffffff'
GPGPU-Sim uArch: Shader 27 bind to kernel 1 '_Z14calculate_tempiPfS_S_iiiiffffff'
Destroy streams for kernel 1: size 0
kernel_name = _Z14calculate_tempiPfS_S_iiiiffffff 
kernel_launch_uid = 1 
gpu_sim_cycle = 1909767
gpu_sim_insn = 415466464
gpu_ipc =     217.5482
gpu_tot_sim_cycle = 2131917
gpu_tot_sim_insn = 415466464
gpu_tot_ipc =     194.8793
gpu_tot_issued_cta = 7396
max_total_param_size = 0
gpu_stall_dramfull = 53963
gpu_stall_icnt2sh    = 596464
partiton_reqs_in_parallel = 41960911
partiton_reqs_in_parallel_total    = 0
partiton_level_parallism =      21.9717
partiton_level_parallism_total  =      19.6822
partiton_reqs_in_parallel_util = 41960911
partiton_reqs_in_parallel_util_total    = 0
gpu_sim_cycle_parition_util = 1909143
gpu_tot_sim_cycle_parition_util    = 0
partiton_level_parallism_util =      21.9789
partiton_level_parallism_util_total  =      21.9789
partiton_replys_in_parallel = 456444
partiton_replys_in_parallel_total    = 0
L2_BW  =      22.6539 GB/Sec
L2_BW_total  =      20.2933 GB/Sec
gpu_total_sim_rate=165854

========= Core cache stats =========
L1I_cache:
	L1I_total_cache_accesses = 7740000
	L1I_total_cache_misses = 8688
	L1I_total_cache_miss_rate = 0.0011
	L1I_total_cache_pending_hits = 0
	L1I_total_cache_reservation_fails = 6846
L1D_cache:
	L1D_cache_core[0]: Access = 0, Miss = 0, Miss_rate = -nan, Pending_hits = 0, Reservation_fails = 0
	L1D_cache_core[1]: Access = 0, Miss = 0, Miss_rate = -nan, Pending_hits = 0, Reservation_fails = 0
	L1D_cache_core[2]: Access = 0, Miss = 0, Miss_rate = -nan, Pending_hits = 0, Reservation_fails = 0
	L1D_cache_core[3]: Access = 0, Miss = 0, Miss_rate = -nan, Pending_hits = 0, Reservation_fails = 0
	L1D_cache_core[4]: Access = 0, Miss = 0, Miss_rate = -nan, Pending_hits = 0, Reservation_fails = 0
	L1D_cache_core[5]: Access = 0, Miss = 0, Miss_rate = -nan, Pending_hits = 0, Reservation_fails = 0
	L1D_cache_core[6]: Access = 0, Miss = 0, Miss_rate = -nan, Pending_hits = 0, Reservation_fails = 0
	L1D_cache_core[7]: Access = 0, Miss = 0, Miss_rate = -nan, Pending_hits = 0, Reservation_fails = 0
	L1D_cache_core[8]: Access = 0, Miss = 0, Miss_rate = -nan, Pending_hits = 0, Reservation_fails = 0
	L1D_cache_core[9]: Access = 0, Miss = 0, Miss_rate = -nan, Pending_hits = 0, Reservation_fails = 0
	L1D_cache_core[10]: Access = 0, Miss = 0, Miss_rate = -nan, Pending_hits = 0, Reservation_fails = 0
	L1D_cache_core[11]: Access = 0, Miss = 0, Miss_rate = -nan, Pending_hits = 0, Reservation_fails = 0
	L1D_cache_core[12]: Access = 0, Miss = 0, Miss_rate = -nan, Pending_hits = 0, Reservation_fails = 0
	L1D_cache_core[13]: Access = 0, Miss = 0, Miss_rate = -nan, Pending_hits = 0, Reservation_fails = 0
	L1D_cache_core[14]: Access = 0, Miss = 0, Miss_rate = -nan, Pending_hits = 0, Reservation_fails = 0
	L1D_cache_core[15]: Access = 0, Miss = 0, Miss_rate = -nan, Pending_hits = 0, Reservation_fails = 0
	L1D_cache_core[16]: Access = 0, Miss = 0, Miss_rate = -nan, Pending_hits = 0, Reservation_fails = 0
	L1D_cache_core[17]: Access = 0, Miss = 0, Miss_rate = -nan, Pending_hits = 0, Reservation_fails = 0
	L1D_cache_core[18]: Access = 0, Miss = 0, Miss_rate = -nan, Pending_hits = 0, Reservation_fails = 0
	L1D_cache_core[19]: Access = 0, Miss = 0, Miss_rate = -nan, Pending_hits = 0, Reservation_fails = 0
	L1D_cache_core[20]: Access = 0, Miss = 0, Miss_rate = -nan, Pending_hits = 0, Reservation_fails = 0
	L1D_cache_core[21]: Access = 0, Miss = 0, Miss_rate = -nan, Pending_hits = 0, Reservation_fails = 0
	L1D_cache_core[22]: Access = 0, Miss = 0, Miss_rate = -nan, Pending_hits = 0, Reservation_fails = 0
	L1D_cache_core[23]: Access = 0, Miss = 0, Miss_rate = -nan, Pending_hits = 0, Reservation_fails = 0
	L1D_cache_core[24]: Access = 0, Miss = 0, Miss_rate = -nan, Pending_hits = 0, Reservation_fails = 0
	L1D_cache_core[25]: Access = 0, Miss = 0, Miss_rate = -nan, Pending_hits = 0, Reservation_fails = 0
	L1D_cache_core[26]: Access = 0, Miss = 0, Miss_rate = -nan, Pending_hits = 0, Reservation_fails = 0
	L1D_cache_core[27]: Access = 0, Miss = 0, Miss_rate = -nan, Pending_hits = 0, Reservation_fails = 0
	L1D_total_cache_accesses = 0
	L1D_total_cache_misses = 0
	L1D_total_cache_pending_hits = 0
	L1D_total_cache_reservation_fails = 0
	L1D_cache_data_port_util = 0.000
	L1D_cache_fill_port_util = 0.000
L1C_cache:
	L1C_total_cache_accesses = 769184
	L1C_total_cache_misses = 2195
	L1C_total_cache_miss_rate = 0.0029
	L1C_total_cache_pending_hits = 0
	L1C_total_cache_reservation_fails = 4886
L1T_cache:
	L1T_total_cache_accesses = 0
	L1T_total_cache_misses = 0
	L1T_total_cache_pending_hits = 0
	L1T_total_cache_reservation_fails = 0

Total_core_cache_stats:
	Total_core_cache_stats_breakdown[GLOBAL_ACC_R][HIT] = 0
	Total_core_cache_stats_breakdown[GLOBAL_ACC_R][HIT_RESERVED] = 0
	Total_core_cache_stats_breakdown[GLOBAL_ACC_R][MISS] = 0
	Total_core_cache_stats_breakdown[GLOBAL_ACC_R][RESERVATION_FAIL] = 0
	Total_core_cache_stats_breakdown[LOCAL_ACC_R][HIT] = 0
	Total_core_cache_stats_breakdown[LOCAL_ACC_R][HIT_RESERVED] = 0
	Total_core_cache_stats_breakdown[LOCAL_ACC_R][MISS] = 0
	Total_core_cache_stats_breakdown[LOCAL_ACC_R][RESERVATION_FAIL] = 0
	Total_core_cache_stats_breakdown[CONST_ACC_R][HIT] = 766989
	Total_core_cache_stats_breakdown[CONST_ACC_R][HIT_RESERVED] = 0
	Total_core_cache_stats_breakdown[CONST_ACC_R][MISS] = 2195
	Total_core_cache_stats_breakdown[CONST_ACC_R][RESERVATION_FAIL] = 4886
	Total_core_cache_stats_breakdown[TEXTURE_ACC_R][HIT] = 0
	Total_core_cache_stats_breakdown[TEXTURE_ACC_R][HIT_RESERVED] = 0
	Total_core_cache_stats_breakdown[TEXTURE_ACC_R][MISS] = 0
	Total_core_cache_stats_breakdown[TEXTURE_ACC_R][RESERVATION_FAIL] = 0
	Total_core_cache_stats_breakdown[GLOBAL_ACC_W][HIT] = 0
	Total_core_cache_stats_breakdown[GLOBAL_ACC_W][HIT_RESERVED] = 0
	Total_core_cache_stats_breakdown[GLOBAL_ACC_W][MISS] = 0
	Total_core_cache_stats_breakdown[GLOBAL_ACC_W][RESERVATION_FAIL] = 0
	Total_core_cache_stats_breakdown[LOCAL_ACC_W][HIT] = 0
	Total_core_cache_stats_breakdown[LOCAL_ACC_W][HIT_RESERVED] = 0
	Total_core_cache_stats_breakdown[LOCAL_ACC_W][MISS] = 0
	Total_core_cache_stats_breakdown[LOCAL_ACC_W][RESERVATION_FAIL] = 0
	Total_core_cache_stats_breakdown[L1_WRBK_ACC][HIT] = 0
	Total_core_cache_stats_breakdown[L1_WRBK_ACC][HIT_RESERVED] = 0
	Total_core_cache_stats_breakdown[L1_WRBK_ACC][MISS] = 0
	Total_core_cache_stats_breakdown[L1_WRBK_ACC][RESERVATION_FAIL] = 0
	Total_core_cache_stats_breakdown[L2_WRBK_ACC][HIT] = 0
	Total_core_cache_stats_breakdown[L2_WRBK_ACC][HIT_RESERVED] = 0
	Total_core_cache_stats_breakdown[L2_WRBK_ACC][MISS] = 0
	Total_core_cache_stats_breakdown[L2_WRBK_ACC][RESERVATION_FAIL] = 0
	Total_core_cache_stats_breakdown[INST_ACC_R][HIT] = 7731312
	Total_core_cache_stats_breakdown[INST_ACC_R][HIT_RESERVED] = 0
	Total_core_cache_stats_breakdown[INST_ACC_R][MISS] = 8688
	Total_core_cache_stats_breakdown[INST_ACC_R][RESERVATION_FAIL] = 6846
	Total_core_cache_stats_breakdown[L1_WR_ALLOC_R][HIT] = 0
	Total_core_cache_stats_breakdown[L1_WR_ALLOC_R][HIT_RESERVED] = 0
	Total_core_cache_stats_breakdown[L1_WR_ALLOC_R][MISS] = 0
	Total_core_cache_stats_breakdown[L1_WR_ALLOC_R][RESERVATION_FAIL] = 0
	Total_core_cache_stats_breakdown[L2_WR_ALLOC_R][HIT] = 0
	Total_core_cache_stats_breakdown[L2_WR_ALLOC_R][HIT_RESERVED] = 0
	Total_core_cache_stats_breakdown[L2_WR_ALLOC_R][MISS] = 0
	Total_core_cache_stats_breakdown[L2_WR_ALLOC_R][RESERVATION_FAIL] = 0
	Total_core_cache_stats_breakdown[CONST_ACC_R][TOTAL_ACCESS] = 769184
	Total_core_cache_stats_breakdown[INST_ACC_R][TOTAL_ACCESS] = 7740000
Shader 0 warp_id issue ditsribution:
warp_id:
0, 1, 2, 3, 4, 5, 6, 7, 8, 9, 10, 11, 12, 13, 14, 15, 16, 17, 18, 19, 20, 21, 22, 23, 24, 25, 26, 27, 28, 29, 30, 31, 32, 33, 34, 35, 36, 37, 38, 39, 40, 41, 42, 43, 44, 45, 46, 47, 48, 49, 50, 51, 52, 53, 54, 55, 
distro:
9982, 12592, 12612, 12571, 12613, 12566, 12601, 10088, 9728, 12272, 12295, 12263, 12292, 12247, 12281, 9832, 9486, 11968, 11996, 11958, 11987, 11949, 11983, 9586, 9305, 11647, 11663, 11638, 11660, 11636, 11659, 9338, 9547, 11942, 11972, 11783, 11827, 11787, 11828, 9477, 9310, 11634, 11666, 11485, 11521, 11483, 11514, 9253, 9302, 11640, 11662, 11485, 11511, 11469, 11509, 9253, 
gpgpu_n_tot_thrd_icount = 485326208
gpgpu_n_tot_w_icount = 15166444
gpgpu_n_stall_shd_mem = 394190
gpgpu_n_mem_read_local = 0
gpgpu_n_mem_write_local = 0
gpgpu_n_mem_read_global = 346456
gpgpu_n_mem_write_global = 109568
gpgpu_n_mem_texture = 0
gpgpu_n_mem_const = 56
gpgpu_n_load_insn  = 3720992
gpgpu_n_store_insn = 1048576
gpgpu_n_shmem_insn = 24940324
gpgpu_n_tex_insn = 0
gpgpu_n_const_mem_insn = 0
gpgpu_n_param_mem_insn = 24613888
gpgpu_n_shmem_bkconflict = 0
gpgpu_n_cache_bkconflict = 0
gpgpu_n_intrawarp_mshr_merge = 0
gpgpu_n_cmem_portconflict = 4886
gpgpu_stall_shd_mem[c_mem][bk_conf] = 4886
gpgpu_stall_shd_mem[c_mem][mshr_rc] = 0
gpgpu_stall_shd_mem[c_mem][icnt_rc] = 0
gpgpu_stall_shd_mem[c_mem][data_port_stall] = 0
gpgpu_stall_shd_mem[t_mem][mshr_rc] = 0
gpgpu_stall_shd_mem[t_mem][icnt_rc] = 0
gpgpu_stall_shd_mem[t_mem][data_port_stall] = 0
gpgpu_stall_shd_mem[s_mem][bk_conf] = 0
gpgpu_stall_shd_mem[gl_mem][bk_conf] = 0
gpgpu_stall_shd_mem[gl_mem][coal_stall] = 322079
gpgpu_stall_shd_mem[gl_mem][data_port_stall] = 0
gpgpu_stall_shd_mem[g_mem_ld][mshr_rc] = 0
gpgpu_stall_shd_mem[g_mem_ld][icnt_rc] = 67225
gpgpu_stall_shd_mem[g_mem_ld][wb_icnt_rc] = 0
gpgpu_stall_shd_mem[g_mem_ld][wb_rsrv_fail] = 0
gpgpu_stall_shd_mem[g_mem_st][mshr_rc] = 0
gpgpu_stall_shd_mem[g_mem_st][icnt_rc] = 0
gpgpu_stall_shd_mem[g_mem_st][wb_icnt_rc] = 0
gpgpu_stall_shd_mem[g_mem_st][wb_rsrv_fail] = 0
gpgpu_stall_shd_mem[l_mem_ld][mshr_rc] = 0
gpgpu_stall_shd_mem[l_mem_ld][icnt_rc] = 0
gpgpu_stall_shd_mem[l_mem_ld][wb_icnt_rc] = 0
gpgpu_stall_shd_mem[l_mem_ld][wb_rsrv_fail] = 0
gpgpu_stall_shd_mem[l_mem_st][mshr_rc] = 0
gpgpu_stall_shd_mem[l_mem_st][icnt_rc] = 0
gpgpu_stall_shd_mem[l_mem_ld][wb_icnt_rc] = 0
gpgpu_stall_shd_mem[l_mem_ld][wb_rsrv_fail] = 0
gpu_reg_bank_conflict_stalls = 0
Warp Occupancy Distribution:
Stall:534111	W0_Idle:48203163	W0_Scoreboard:45444526	W1:0	W2:0	W3:0	W4:0	W5:8500	W6:0	W7:0	W8:28160	W9:0	W10:25600	W11:0	W12:12958	W13:8500	W14:714000	W15:0	W16:0	W17:0	W18:0	W19:0	W20:0	W21:0	W22:0	W23:0	W24:3517792	W25:0	W26:25600	W27:0	W28:3287550	W29:0	W30:0	W31:0	W32:7537784
traffic_breakdown_coretomem[CONST_ACC_R] = 448 {8:56,}
traffic_breakdown_coretomem[GLOBAL_ACC_R] = 2771648 {8:346456,}
traffic_breakdown_coretomem[GLOBAL_ACC_W] = 7856128 {40:44032,72:44032,136:21504,}
traffic_breakdown_coretomem[INST_ACC_R] = 2912 {8:364,}
traffic_breakdown_memtocore[CONST_ACC_R] = 4032 {72:56,}
traffic_breakdown_memtocore[GLOBAL_ACC_R] = 28785856 {40:114576,72:114576,136:117304,}
traffic_breakdown_memtocore[GLOBAL_ACC_W] = 876544 {8:109568,}
traffic_breakdown_memtocore[INST_ACC_R] = 49504 {136:364,}
maxmrqlatency = 540 
maxdqlatency = 0 
maxmflatency = 243881 
averagemflatency = 5483 
max_icnt2mem_latency = 243557 
max_icnt2sh_latency = 2131916 
mrq_lat_table:110982 	6007 	6058 	11874 	12519 	11549 	9891 	9730 	9194 	11 	0 	0 	0 	0 	0 	0 	0 	0 	0 	0 	0 	0 	0 	0 	0 	0 	0 	0 	0 	0 	0 	0 	
dq_lat_table:0 	0 	0 	0 	0 	0 	0 	0 	0 	0 	0 	0 	0 	0 	0 	0 	0 	0 	0 	0 	0 	0 	0 	0 	0 	0 	0 	0 	0 	0 	0 	0 	
mf_lat_table:0 	0 	0 	0 	0 	0 	0 	280408 	131946 	1794 	234 	2284 	1525 	3645 	7765 	18466 	5817 	2196 	0 	0 	0 	0 	0 	0 	0 	0 	0 	0 	0 	0 	0 	0 	
icnt2mem_lat_table:0 	0 	230497 	47740 	4693 	1474 	122148 	7675 	285 	1 	423 	2094 	1529 	3754 	8053 	18065 	5817 	2196 	0 	0 	0 	0 	0 	0 	
icnt2sh_lat_table:0 	0 	105858 	147631 	84785 	8114 	124 	0 	0 	0 	0 	0 	0 	0 	0 	0 	0 	0 	12840 	14659 	68645 	13424 	0 	0 	
mf_lat_pw_table:0 	0 	0 	0 	0 	0 	0 	387 	65 	3 	3 	13 	6 	12 	21 	30 	7 	2 	0 	0 	0 	0 	0 	0 	0 	0 	0 	0 	0 	0 	0 	0 	
maximum concurrent accesses to same row:
dram[0]:        69        70        69        70        66        67        69        70        69        70        69        70        68        66        69        70 
dram[1]:        69        70        69        70        66        63        69        70        69        70        69        70        68        65        69        70 
dram[2]:        69        70        69        70        65        65        69        70        69        70        69        70        66        66        69        70 
dram[3]:        69        70        69        70        67        63        69        70        69        70        69        70        64        66        69        70 
dram[4]:        69        70        69        70        65        66        69        70        69        70        69        70        66        65        69        70 
dram[5]:        69        70        69        70        63        66        69        70        69        70        69        70        67        69        69        70 
dram[6]:        69        70        69        70        68        64        69        70        69        70        69        70        69        66        69        70 
dram[7]:        69        70        69        70        64        65        69        70        69        70        69        70        66        66        69        70 
dram[8]:        69        70        69        70        66        64        69        70        69        70        69        70        65        66        69        70 
dram[9]:        69        70        69        70        67        63        69        70        69        70        69        70        64        66        69        70 
dram[10]:        69        70        69        70        64        67        69        70        69        70        69        70        67        66        69        70 
maximum service time to same row:
dram[0]:    259027    259104    489126    489366    256635    256501    492400    492464    377430    377334    376792    248610    254732    254730    253451    253530 
dram[1]:    259165    259484    489324    489328    487621    487415    496410    496340    377548    377494    248539    248913    254718    254714    253460    253304 
dram[2]:    259128    259478    489149    489109    486738    486745    496291    496264    377556    377419    248618    248343    254726    254725    252889    252533 
dram[3]:    259171    259143    489114    489027    365689    256693    496332    496304    377310    377428    248263    248208    254601    254637    253443    253455 
dram[4]:    259383    259619    488979    489316    256542    256699    492422    492217    377542    377553    248148    248217    254669    254654    253457    253541 
dram[5]:    259027    259103    489221    489226    256636    256483    492080    492363    377452    377398    248157    251804    254732    254731    253463    253521 
dram[6]:    259198    259520    489150    489143    487570    487318    496337    496238    377430    377400    376319    245760    254721    254718    253457    253305 
dram[7]:    257646    259492    489088    488999    487409    487410    496222    496349    377446    377268    245675    245665    254725    254727    252939    252512 
dram[8]:    259159    259186    488980    488893    256532    256576    496376    496280    377329    377370    245566    245576    254600    254624    253433    253499 
dram[9]:    259365    259470    488978    489324    256425    256563    492432    492160    377284    377301    245579    245743    254549    254648    253456    253536 
dram[10]:    264397    263758    489230    489200    256823    256448    492132    492363    377262    377270    245712    249367    254675    254664    253472    253529 
average row accesses per activate:
dram[0]: 13.493506 12.913580 10.356436  9.757010 10.155340 10.480000 10.617647 10.621359  9.927273  9.387931 10.400000  9.508772 11.483871 11.322917 12.607142 10.896907 
dram[1]: 13.880000 13.973333 10.701031 11.150537 11.461538 11.255320 11.312500 10.179245 10.000000 10.018349 11.142858 10.377358 11.813187 12.383721 13.443038 11.641304 
dram[2]: 13.773334 13.662337 11.373627 11.293478 11.118279 11.234042 11.354167 12.363636  9.827272 10.121495 11.574468 11.437500 13.156627 12.600000 12.879519 12.843373 
dram[3]: 15.969231 15.611940 11.511111 12.116279 11.685393 11.722222 12.627907 12.845238 10.592233 11.061225 12.144444 11.741936 13.444445 13.182927 12.056180 12.400000 
dram[4]: 13.227848 13.736842 10.166667  9.990385 11.182796 13.250000 12.623529 11.977777 10.631068 10.371428 11.421053 11.237113 13.670886 13.158537 14.432432 12.441860 
dram[5]: 12.357142 12.658537  9.490909  9.418181 10.077670 10.125000 10.938775 10.656863  9.750000  9.362069  9.981651 10.371428 12.321839 10.760000 10.908163 10.610000 
dram[6]: 13.346154 12.392858 11.651686 11.172043 11.094737  9.392858 10.266666 10.314285 10.000000  9.696428 11.600000 10.705882 12.089888 12.250000 12.360465 11.619565 
dram[7]: 13.853333 14.297297 12.235294 12.297619 10.505051 10.857142 12.133333 12.363636  9.736363 10.205607 12.720930 12.076923 11.868132 12.033708 11.932584 11.988764 
dram[8]: 13.853333 13.024692 11.455556 12.369047 11.494506 11.244680 12.639535 12.593023 10.046296 10.064815 12.940476 12.755814 12.386364 12.441860 12.067416 12.079545 
dram[9]: 14.287671 14.315068 10.370000  9.830189 10.470000 11.031250 12.459770 11.966666 10.745098 10.910000 12.402299 11.978022 11.988889 12.845238 12.714286 11.630435 
dram[10]: 13.346154 13.346154 10.254902  9.694445 10.306931 10.670000 11.663043 11.436171 10.390476  9.696428 11.237113 10.533980 12.238636 11.977777 11.608696 10.989691 
average row locality = 187815/16354 = 11.484346
number of total memory accesses made:
dram[0]:         0         0         0         0         0         0         0         0         0         0         0         0         0         0         0         0 
dram[1]:         0         0         0         0         0         0         0         0         0         0         0         0         0         0         0         0 
dram[2]:         0         0         0         0         0         0         0         0         0         0         0         0         0         0         0         0 
dram[3]:         0         0         0         0         0         0         0         0         0         0         0         0         0         0         0         0 
dram[4]:         0         0         0         0         0         0         0         0         0         0         0         0         0         0         0         0 
dram[5]:         0         0         0         0         0         0         0         0         0         0         0         0         0         0         0         0 
dram[6]:         0         0         0         0         0         0         0         0         0         0         0         0         0         0         0         0 
dram[7]:         0         0         0         0         0         0         0         0         0         0         0         0         0         0         0         0 
dram[8]:         0         0         0         0         0         0         0         0         0         0         0         0         0         0         0         0 
dram[9]:         0         0         0         0         0         0         0         0         0         0         0         0         0         0         0         0 
dram[10]:         0         0         0         0         0         0         0         0         0         0         0         0         0         0         0         0 
total accesses: 0
min_bank_accesses = 0!
min_chip_accesses = 0!
number of total read accesses:
dram[0]:       561       560       560       560       560       560       560       560       560       560       548       548       560       560       560       560 
dram[1]:       560       560       560       560       560       560       560       560       560       560       549       549       560       560       560       560 
dram[2]:       560       560       560       560       560       560       560       560       560       560       549       549       560       560       560       560 
dram[3]:       560       560       560       560       560       560       560       560       560       560       549       549       560       560       560       560 
dram[4]:       560       560       560       560       560       560       560       560       560       560       549       549       560       560       561       561 
dram[5]:       560       560       560       560       560       560       560       560       560       560       548       548       560       560       561       561 
dram[6]:       560       560       560       560       560       560       560       560       560       560       548       548       560       560       561       561 
dram[7]:       560       560       560       560       560       560       560       560       560       560       548       548       560       560       561       561 
dram[8]:       560       560       560       560       560       560       560       560       560       560       548       548       560       560       561       561 
dram[9]:       560       560       560       560       560       560       560       560       560       560       548       548       560       560       561       561 
dram[10]:       560       560       560       560       560       560       560       560       560       560       548       548       560       560       561       560 
total reads: 98318
bank skew: 561/548 = 1.02
chip skew: 8940/8937 = 1.00
number of total write accesses:
dram[0]:       478       486       486       484       486       488       523       534       532       529       544       536       508       527       499       497 
dram[1]:       481       488       478       477       483       498       526       519       520       532       543       551       515       505       502       511 
dram[2]:       473       492       475       479       474       496       530       528       521       523       539       549       532       511       509       506 
dram[3]:       478       486       476       482       480       495       526       519       531       524       544       543       529       521       513       494 
dram[4]:       485       484       477       479       480       500       513       518       535       529       536       541       520       519       507       509 
dram[5]:       478       478       484       476       478       493       512       527       532       526       540       541       512       516       508       500 
dram[6]:       481       481       477       479       494       492       518       523       520       526       554       544       516       518       502       508 
dram[7]:       479       498       480       473       480       504       532       528       511       532       546       551       520       511       501       506 
dram[8]:       479       495       471       479       486       497       527       523       525       527       539       549       530       510       513       502 
dram[9]:       483       485       477       482       487       499       524       517       536       531       531       542       519       519       507       509 
dram[10]:       481       481       486       487       481       507       513       515       531       526       542       537       517       518       507       506 
total reads: 89497
bank skew: 554/471 = 1.18
chip skew: 8152/8101 = 1.01
average mf latency per bank:
dram[0]:      12088     11822     19872     20350     19689     19465     12265     12435      6475      6346      9014      9073     14339     14267     12203     12004
dram[1]:      12908     13056     20220     20501     19944     19351     12512     12741      6601      6422      9168      9085     14372     14736     12278     11966
dram[2]:      12746     12754     20001     19784     19835     19563     12584     12696      6396      6040      9257      9119     14498     14897     12189     12027
dram[3]:      13189     12577     19627     19732     19755     19285     12405     12425      6419      6235      9175      9175     14405     14749     12233     12035
dram[4]:      12955     12935     18933     19118     20452     19959     12261     12143      6403      6246      8930      8545     14592     14578     11938     11660
dram[5]:      13250     13586     18760     18973     20612     20193     11937     11983      6627      6550      8310      8318     14586     14622     11242     11093
dram[6]:      13512     13107     19706     20050     19830     19502     12177     12365      6815      6596      9474      9881     14468     14821     11685     11475
dram[7]:      12929     13172     19521     19490     20440     20365     12779     13148      6616      6141      9915      9883     14934     15218     11800     11574
dram[8]:      13171     12721     19550     19696     20211     19969     12881     12772      6194      5916      9979      9842     14842     15306     11743     11613
dram[9]:      13235     12661     18976     19197     20037     19267     12093     12005      6284      6087     10100     10000     14924     15004     12293     12110
dram[10]:      12238     12531     18859     18877     20118     19756     12038     12174      6322      6211     10055     10029     14685     14417     12006     11695
maximum mf latency per bank:
dram[0]:     230096    230012    230738    230695    230586    230449    123758    123719    123046    122891    130124    130129    129822    129838    243814    243834
dram[1]:     230073    230055    230771    230701    230642    230614    123748    123755    122986    123019    130123    130135    129950    130093    243800    243829
dram[2]:     230072    230018    230936    230746    230567    230561    123755    123764    123015    122995    130125    130132    129994    130152    243808    243831
dram[3]:     230073    230070    230717    230743    230585    230597    123760    123737    123069    123072    130133    130135    129945    130069    243807    243881
dram[4]:     230060    230052    230635    230649    230585    230590    123744    123755    123051    123004    130130    130134    129849    129903    243809    129597
dram[5]:     230221    230017    230655    230648    230576    230475    123562    123729    123015    122923    130127    130124    129833    129854    129626    129729
dram[6]:     230202    230083    230776    230663    230446    230438    123731    123756    123043    123003    130136    130152    129943    130021    129802    129816
dram[7]:     230015    230125    230873    230742    230566    230600    123783    124042    122982    123015    130130    130133    129945    130040    129722    129672
dram[8]:     230132    230134    230709    230811    230613    230616    123813    123828    123011    123071    130125    130163    129991    130071    129763    129718
dram[9]:     230151    230158    230716    230667    230575    230626    123724    123734    123050    122978    130136    130138    129810    129926    243764    243774
dram[10]:     230123    230081    230720    230661    230576    230535    123741    123799    123024    122964    130139    130142    129853    129877    243797    243810
Memory Partition 0: 
Cache L2_bank_000:
MSHR contents

Cache L2_bank_001:
MSHR contents

In Dram Latency Queue (total = 0): 
DRAM[0]: 16 bks, busW=4 BL=8 CL=12, tRRD=2 tCCD=6, tRCD=12 tRAS=28 tRP=12 tRC=40
n_cmd=3546156 n_nop=3488185 n_act=1590 n_pre=1574 n_req=17074 n_rd=35748 n_write=19059 bw_util=0.03091
n_activity=193071 dram_eff=0.5677
bk0: 2244a 3526162i bk1: 2240a 3524851i bk2: 2240a 3524663i bk3: 2240a 3523510i bk4: 2240a 3525053i bk5: 2240a 3523394i bk6: 2240a 3523961i bk7: 2240a 3523331i bk8: 2240a 3524020i bk9: 2240a 3522623i bk10: 2192a 3524403i bk11: 2192a 3523109i bk12: 2240a 3524832i bk13: 2240a 3523186i bk14: 2240a 3525354i bk15: 2240a 3524284i 
dram_util_bins: 0 0 0 0 0 0 0 0 0 0
dram_eff_bins: 0 0 0 0 0 0 0 0 0 0
mrqq: max=64 avg=0.32868
Memory Partition 1: 
Cache L2_bank_002:
MSHR contents

Cache L2_bank_003:
MSHR contents

In Dram Latency Queue (total = 0): 
DRAM[1]: 16 bks, busW=4 BL=8 CL=12, tRRD=2 tCCD=6, tRCD=12 tRAS=28 tRP=12 tRC=40
n_cmd=3546156 n_nop=3488428 n_act=1496 n_pre=1480 n_req=17067 n_rd=35752 n_write=19000 bw_util=0.03088
n_activity=192595 dram_eff=0.5686
bk0: 2240a 3526330i bk1: 2240a 3524339i bk2: 2240a 3525857i bk3: 2240a 3525009i bk4: 2240a 3525417i bk5: 2240a 3524737i bk6: 2240a 3525192i bk7: 2240a 3524164i bk8: 2240a 3523707i bk9: 2240a 3522781i bk10: 2196a 3524696i bk11: 2196a 3523282i bk12: 2240a 3525247i bk13: 2240a 3524428i bk14: 2240a 3525229i bk15: 2240a 3523667i 
dram_util_bins: 0 0 0 0 0 0 0 0 0 0
dram_eff_bins: 0 0 0 0 0 0 0 0 0 0
mrqq: max=64 avg=0.322559
Memory Partition 2: 
Cache L2_bank_004:
MSHR contents

Cache L2_bank_005:
MSHR contents

In Dram Latency Queue (total = 0): 
DRAM[2]: 16 bks, busW=4 BL=8 CL=12, tRRD=2 tCCD=6, tRCD=12 tRAS=28 tRP=12 tRC=40
n_cmd=3546156 n_nop=3488463 n_act=1447 n_pre=1431 n_req=17075 n_rd=35752 n_write=19063 bw_util=0.03092
n_activity=192726 dram_eff=0.5688
bk0: 2240a 3527004i bk1: 2240a 3524487i bk2: 2240a 3525585i bk3: 2240a 3524601i bk4: 2240a 3525018i bk5: 2240a 3524408i bk6: 2240a 3524931i bk7: 2240a 3524406i bk8: 2240a 3524734i bk9: 2240a 3523867i bk10: 2196a 3524814i bk11: 2196a 3523971i bk12: 2240a 3524579i bk13: 2240a 3523379i bk14: 2240a 3525187i bk15: 2240a 3524969i 
dram_util_bins: 0 0 0 0 0 0 0 0 0 0
dram_eff_bins: 0 0 0 0 0 0 0 0 0 0
mrqq: max=64 avg=0.318566
Memory Partition 3: 
Cache L2_bank_006:
MSHR contents

Cache L2_bank_007:
MSHR contents

In Dram Latency Queue (total = 0): 
DRAM[3]: 16 bks, busW=4 BL=8 CL=12, tRRD=2 tCCD=6, tRCD=12 tRAS=28 tRP=12 tRC=40
n_cmd=3546156 n_nop=3488591 n_act=1378 n_pre=1362 n_req=17079 n_rd=35752 n_write=19073 bw_util=0.03092
n_activity=192867 dram_eff=0.5685
bk0: 2240a 3526637i bk1: 2240a 3525627i bk2: 2240a 3525843i bk3: 2240a 3525014i bk4: 2240a 3525596i bk5: 2240a 3525193i bk6: 2240a 3524541i bk7: 2240a 3524364i bk8: 2240a 3523936i bk9: 2240a 3523072i bk10: 2196a 3524816i bk11: 2196a 3524244i bk12: 2240a 3524864i bk13: 2240a 3523980i bk14: 2240a 3525853i bk15: 2240a 3524256i 
dram_util_bins: 0 0 0 0 0 0 0 0 0 0
dram_eff_bins: 0 0 0 0 0 0 0 0 0 0
mrqq: max=64 avg=0.318946
Memory Partition 4: 
Cache L2_bank_008:
MSHR contents

Cache L2_bank_009:
MSHR contents

In Dram Latency Queue (total = 0): 
DRAM[4]: 16 bks, busW=4 BL=8 CL=12, tRRD=2 tCCD=6, tRCD=12 tRAS=28 tRP=12 tRC=40
n_cmd=3546156 n_nop=3488513 n_act=1430 n_pre=1414 n_req=17072 n_rd=35760 n_write=19039 bw_util=0.03091
n_activity=192617 dram_eff=0.569
bk0: 2240a 3525729i bk1: 2240a 3524321i bk2: 2240a 3525689i bk3: 2240a 3524572i bk4: 2240a 3525714i bk5: 2240a 3524077i bk6: 2240a 3525624i bk7: 2240a 3523613i bk8: 2240a 3523789i bk9: 2240a 3523362i bk10: 2196a 3524330i bk11: 2196a 3523144i bk12: 2240a 3525531i bk13: 2240a 3524246i bk14: 2244a 3526124i bk15: 2244a 3524283i 
dram_util_bins: 0 0 0 0 0 0 0 0 0 0
dram_eff_bins: 0 0 0 0 0 0 0 0 0 0
mrqq: max=64 avg=0.320879
Memory Partition 5: 
Cache L2_bank_010:
MSHR contents

Cache L2_bank_011:
MSHR contents

In Dram Latency Queue (total = 0): 
DRAM[5]: 16 bks, busW=4 BL=8 CL=12, tRRD=2 tCCD=6, tRCD=12 tRAS=28 tRP=12 tRC=40
n_cmd=3546156 n_nop=3488187 n_act=1620 n_pre=1604 n_req=17039 n_rd=35752 n_write=18993 bw_util=0.03088
n_activity=193708 dram_eff=0.5652
bk0: 2240a 3525387i bk1: 2240a 3524852i bk2: 2240a 3525303i bk3: 2240a 3524976i bk4: 2240a 3524714i bk5: 2240a 3523591i bk6: 2240a 3525079i bk7: 2240a 3524074i bk8: 2240a 3524054i bk9: 2240a 3522460i bk10: 2192a 3524950i bk11: 2192a 3524088i bk12: 2240a 3525275i bk13: 2240a 3523449i bk14: 2244a 3524907i bk15: 2244a 3524369i 
dram_util_bins: 0 0 0 0 0 0 0 0 0 0
dram_eff_bins: 0 0 0 0 0 0 0 0 0 0
mrqq: max=64 avg=0.314661
Memory Partition 6: 
Cache L2_bank_012:
MSHR contents

Cache L2_bank_013:
MSHR contents

In Dram Latency Queue (total = 0): 
DRAM[6]: 16 bks, busW=4 BL=8 CL=12, tRRD=2 tCCD=6, tRCD=12 tRAS=28 tRP=12 tRC=40
n_cmd=3546156 n_nop=3488338 n_act=1533 n_pre=1517 n_req=17071 n_rd=35752 n_write=19016 bw_util=0.03089
n_activity=192660 dram_eff=0.5685
bk0: 2240a 3525933i bk1: 2240a 3525092i bk2: 2240a 3526213i bk3: 2240a 3525305i bk4: 2240a 3524893i bk5: 2240a 3522990i bk6: 2240a 3524303i bk7: 2240a 3523413i bk8: 2240a 3524570i bk9: 2240a 3523002i bk10: 2192a 3524420i bk11: 2192a 3524529i bk12: 2240a 3524844i bk13: 2240a 3523947i bk14: 2244a 3525338i bk15: 2244a 3523863i 
dram_util_bins: 0 0 0 0 0 0 0 0 0 0
dram_eff_bins: 0 0 0 0 0 0 0 0 0 0
mrqq: max=64 avg=0.318295
Memory Partition 7: 
Cache L2_bank_014:
MSHR contents

Cache L2_bank_015:
MSHR contents

In Dram Latency Queue (total = 0): 
DRAM[7]: 16 bks, busW=4 BL=8 CL=12, tRRD=2 tCCD=6, tRCD=12 tRAS=28 tRP=12 tRC=40
n_cmd=3546156 n_nop=3488493 n_act=1445 n_pre=1429 n_req=17090 n_rd=35752 n_write=19037 bw_util=0.0309
n_activity=192654 dram_eff=0.5688
bk0: 2240a 3526460i bk1: 2240a 3524788i bk2: 2240a 3525820i bk3: 2240a 3524978i bk4: 2240a 3524706i bk5: 2240a 3523718i bk6: 2240a 3524662i bk7: 2240a 3524666i bk8: 2240a 3524086i bk9: 2240a 3523024i bk10: 2192a 3524675i bk11: 2192a 3523999i bk12: 2240a 3525077i bk13: 2240a 3523762i bk14: 2244a 3525602i bk15: 2244a 3524379i 
dram_util_bins: 0 0 0 0 0 0 0 0 0 0
dram_eff_bins: 0 0 0 0 0 0 0 0 0 0
mrqq: max=64 avg=0.321226
Memory Partition 8: 
Cache L2_bank_016:
MSHR contents

Cache L2_bank_017:
MSHR contents

In Dram Latency Queue (total = 0): 
DRAM[8]: 16 bks, busW=4 BL=8 CL=12, tRRD=2 tCCD=6, tRCD=12 tRAS=28 tRP=12 tRC=40
n_cmd=3546156 n_nop=3488458 n_act=1424 n_pre=1408 n_req=17090 n_rd=35752 n_write=19114 bw_util=0.03094
n_activity=193286 dram_eff=0.5677
bk0: 2240a 3526462i bk1: 2240a 3524620i bk2: 2240a 3525920i bk3: 2240a 3525158i bk4: 2240a 3525856i bk5: 2240a 3524226i bk6: 2240a 3524876i bk7: 2240a 3524695i bk8: 2240a 3523710i bk9: 2240a 3522835i bk10: 2192a 3525060i bk11: 2192a 3524312i bk12: 2240a 3525238i bk13: 2240a 3524830i bk14: 2244a 3525003i bk15: 2244a 3524517i 
dram_util_bins: 0 0 0 0 0 0 0 0 0 0
dram_eff_bins: 0 0 0 0 0 0 0 0 0 0
mrqq: max=64 avg=0.32206
Memory Partition 9: 
Cache L2_bank_018:
MSHR contents

Cache L2_bank_019:
MSHR contents

In Dram Latency Queue (total = 0): 
DRAM[9]: 16 bks, busW=4 BL=8 CL=12, tRRD=2 tCCD=6, tRCD=12 tRAS=28 tRP=12 tRC=40
n_cmd=3546156 n_nop=3488423 n_act=1455 n_pre=1439 n_req=17086 n_rd=35752 n_write=19087 bw_util=0.03093
n_activity=193380 dram_eff=0.5672
bk0: 2240a 3526187i bk1: 2240a 3525766i bk2: 2240a 3525445i bk3: 2240a 3524805i bk4: 2240a 3524589i bk5: 2240a 3523684i bk6: 2240a 3524733i bk7: 2240a 3524654i bk8: 2240a 3524739i bk9: 2240a 3523592i bk10: 2192a 3525762i bk11: 2192a 3523661i bk12: 2240a 3525396i bk13: 2240a 3524814i bk14: 2244a 3525019i bk15: 2244a 3524205i 
dram_util_bins: 0 0 0 0 0 0 0 0 0 0
dram_eff_bins: 0 0 0 0 0 0 0 0 0 0
mrqq: max=64 avg=0.319196
Memory Partition 10: 
Cache L2_bank_020:
MSHR contents

Cache L2_bank_021:
MSHR contents

In Dram Latency Queue (total = 0): 
DRAM[10]: 16 bks, busW=4 BL=8 CL=12, tRRD=2 tCCD=6, tRCD=12 tRAS=28 tRP=12 tRC=40
n_cmd=3546156 n_nop=3488282 n_act=1537 n_pre=1521 n_req=17072 n_rd=35748 n_write=19068 bw_util=0.03092
n_activity=193517 dram_eff=0.5665
bk0: 2240a 3525663i bk1: 2240a 3524367i bk2: 2240a 3525166i bk3: 2240a 3523893i bk4: 2240a 3524903i bk5: 2240a 3522924i bk6: 2240a 3525278i bk7: 2240a 3524248i bk8: 2240a 3524301i bk9: 2240a 3522909i bk10: 2192a 3524575i bk11: 2192a 3524206i bk12: 2240a 3525289i bk13: 2240a 3523943i bk14: 2244a 3525336i bk15: 2240a 3524154i 
dram_util_bins: 0 0 0 0 0 0 0 0 0 0
dram_eff_bins: 0 0 0 0 0 0 0 0 0 0
mrqq: max=64 avg=0.322417

========= L2 cache stats =========
L2_cache_bank[0]: Access = 20620, Miss = 4469, Miss_rate = 0.217, Pending_hits = 6837, Reservation_fails = 7
L2_cache_bank[1]: Access = 20905, Miss = 4468, Miss_rate = 0.214, Pending_hits = 6957, Reservation_fails = 10
L2_cache_bank[2]: Access = 20570, Miss = 4469, Miss_rate = 0.217, Pending_hits = 6826, Reservation_fails = 2
L2_cache_bank[3]: Access = 20910, Miss = 4469, Miss_rate = 0.214, Pending_hits = 6950, Reservation_fails = 4
L2_cache_bank[4]: Access = 20562, Miss = 4469, Miss_rate = 0.217, Pending_hits = 6734, Reservation_fails = 6
L2_cache_bank[5]: Access = 20901, Miss = 4469, Miss_rate = 0.214, Pending_hits = 6932, Reservation_fails = 6
L2_cache_bank[6]: Access = 20556, Miss = 4469, Miss_rate = 0.217, Pending_hits = 6845, Reservation_fails = 7
L2_cache_bank[7]: Access = 20897, Miss = 4469, Miss_rate = 0.214, Pending_hits = 6941, Reservation_fails = 6
L2_cache_bank[8]: Access = 20582, Miss = 4470, Miss_rate = 0.217, Pending_hits = 6814, Reservation_fails = 5
L2_cache_bank[9]: Access = 20926, Miss = 4470, Miss_rate = 0.214, Pending_hits = 6958, Reservation_fails = 7
L2_cache_bank[10]: Access = 20583, Miss = 4469, Miss_rate = 0.217, Pending_hits = 6808, Reservation_fails = 6
L2_cache_bank[11]: Access = 20925, Miss = 4469, Miss_rate = 0.214, Pending_hits = 6941, Reservation_fails = 10
L2_cache_bank[12]: Access = 20590, Miss = 4469, Miss_rate = 0.217, Pending_hits = 6838, Reservation_fails = 6
L2_cache_bank[13]: Access = 20929, Miss = 4469, Miss_rate = 0.214, Pending_hits = 7003, Reservation_fails = 7
L2_cache_bank[14]: Access = 20586, Miss = 4469, Miss_rate = 0.217, Pending_hits = 6762, Reservation_fails = 8
L2_cache_bank[15]: Access = 20925, Miss = 4469, Miss_rate = 0.214, Pending_hits = 6930, Reservation_fails = 9
L2_cache_bank[16]: Access = 20580, Miss = 4469, Miss_rate = 0.217, Pending_hits = 6765, Reservation_fails = 6
L2_cache_bank[17]: Access = 20920, Miss = 4469, Miss_rate = 0.214, Pending_hits = 7026, Reservation_fails = 13
L2_cache_bank[18]: Access = 20578, Miss = 4469, Miss_rate = 0.217, Pending_hits = 6841, Reservation_fails = 8
L2_cache_bank[19]: Access = 20921, Miss = 4469, Miss_rate = 0.214, Pending_hits = 6884, Reservation_fails = 7
L2_cache_bank[20]: Access = 20581, Miss = 4469, Miss_rate = 0.217, Pending_hits = 6803, Reservation_fails = 5
L2_cache_bank[21]: Access = 20897, Miss = 4468, Miss_rate = 0.214, Pending_hits = 6922, Reservation_fails = 6
L2_total_cache_accesses = 456444
L2_total_cache_misses = 98318
L2_total_cache_miss_rate = 0.2154
L2_total_cache_pending_hits = 151317
L2_total_cache_reservation_fails = 151
L2_total_cache_breakdown:
	L2_cache_stats_breakdown[GLOBAL_ACC_R][HIT] = 172929
	L2_cache_stats_breakdown[GLOBAL_ACC_R][HIT_RESERVED] = 107991
	L2_cache_stats_breakdown[GLOBAL_ACC_R][MISS] = 65536
	L2_cache_stats_breakdown[GLOBAL_ACC_R][RESERVATION_FAIL] = 2
	L2_cache_stats_breakdown[LOCAL_ACC_R][HIT] = 0
	L2_cache_stats_breakdown[LOCAL_ACC_R][HIT_RESERVED] = 0
	L2_cache_stats_breakdown[LOCAL_ACC_R][MISS] = 0
	L2_cache_stats_breakdown[LOCAL_ACC_R][RESERVATION_FAIL] = 0
	L2_cache_stats_breakdown[CONST_ACC_R][HIT] = 28
	L2_cache_stats_breakdown[CONST_ACC_R][HIT_RESERVED] = 27
	L2_cache_stats_breakdown[CONST_ACC_R][MISS] = 1
	L2_cache_stats_breakdown[CONST_ACC_R][RESERVATION_FAIL] = 0
	L2_cache_stats_breakdown[TEXTURE_ACC_R][HIT] = 0
	L2_cache_stats_breakdown[TEXTURE_ACC_R][HIT_RESERVED] = 0
	L2_cache_stats_breakdown[TEXTURE_ACC_R][MISS] = 0
	L2_cache_stats_breakdown[TEXTURE_ACC_R][RESERVATION_FAIL] = 0
	L2_cache_stats_breakdown[GLOBAL_ACC_W][HIT] = 33842
	L2_cache_stats_breakdown[GLOBAL_ACC_W][HIT_RESERVED] = 42958
	L2_cache_stats_breakdown[GLOBAL_ACC_W][MISS] = 32768
	L2_cache_stats_breakdown[GLOBAL_ACC_W][RESERVATION_FAIL] = 149
	L2_cache_stats_breakdown[LOCAL_ACC_W][HIT] = 0
	L2_cache_stats_breakdown[LOCAL_ACC_W][HIT_RESERVED] = 0
	L2_cache_stats_breakdown[LOCAL_ACC_W][MISS] = 0
	L2_cache_stats_breakdown[LOCAL_ACC_W][RESERVATION_FAIL] = 0
	L2_cache_stats_breakdown[L1_WRBK_ACC][HIT] = 0
	L2_cache_stats_breakdown[L1_WRBK_ACC][HIT_RESERVED] = 0
	L2_cache_stats_breakdown[L1_WRBK_ACC][MISS] = 0
	L2_cache_stats_breakdown[L1_WRBK_ACC][RESERVATION_FAIL] = 0
	L2_cache_stats_breakdown[L2_WRBK_ACC][HIT] = 0
	L2_cache_stats_breakdown[L2_WRBK_ACC][HIT_RESERVED] = 0
	L2_cache_stats_breakdown[L2_WRBK_ACC][MISS] = 0
	L2_cache_stats_breakdown[L2_WRBK_ACC][RESERVATION_FAIL] = 0
	L2_cache_stats_breakdown[INST_ACC_R][HIT] = 10
	L2_cache_stats_breakdown[INST_ACC_R][HIT_RESERVED] = 341
	L2_cache_stats_breakdown[INST_ACC_R][MISS] = 13
	L2_cache_stats_breakdown[INST_ACC_R][RESERVATION_FAIL] = 0
	L2_cache_stats_breakdown[L1_WR_ALLOC_R][HIT] = 0
	L2_cache_stats_breakdown[L1_WR_ALLOC_R][HIT_RESERVED] = 0
	L2_cache_stats_breakdown[L1_WR_ALLOC_R][MISS] = 0
	L2_cache_stats_breakdown[L1_WR_ALLOC_R][RESERVATION_FAIL] = 0
	L2_cache_stats_breakdown[L2_WR_ALLOC_R][HIT] = 0
	L2_cache_stats_breakdown[L2_WR_ALLOC_R][HIT_RESERVED] = 0
	L2_cache_stats_breakdown[L2_WR_ALLOC_R][MISS] = 0
	L2_cache_stats_breakdown[L2_WR_ALLOC_R][RESERVATION_FAIL] = 0
	L2_cache_stats_breakdown[GLOBAL_ACC_R][TOTAL_ACCESS] = 346456
	L2_cache_stats_breakdown[CONST_ACC_R][TOTAL_ACCESS] = 56
	L2_cache_stats_breakdown[GLOBAL_ACC_W][TOTAL_ACCESS] = 109568
	L2_cache_stats_breakdown[INST_ACC_R][TOTAL_ACCESS] = 364
L2_cache_data_port_util = 0.012
L2_cache_fill_port_util = 0.009

icnt_total_pkts_mem_to_simt=1270956
icnt_total_pkts_simt_to_mem=674556
LD_mem_lat_dist  0 0 0 0 0 0 0 0 0 0 0 0 0 0 0 0 0 0 0 0 0 0 0 0 0 0 0
ST_mem_lat_dist  0 0 0 0 0 0 0 0 0 0 0 0 0 0 0 0 0 0 0 0 0 0 0 0 0 0 0
----------------------------Interconnect-DETAILS--------------------------------
Class 0:
Packet latency average = 16.6533
	minimum = 6
	maximum = 752
Network latency average = 13.1381
	minimum = 6
	maximum = 747
Slowest packet = 534860
Flit latency average = 13.0611
	minimum = 6
	maximum = 743
Slowest flit = 1143041
Fragmentation average = 0.00153688
	minimum = 0
	maximum = 658
Injected packet rate average = 0.0047801
	minimum = 0.00417093 (at node 26)
	maximum = 0.00547947 (at node 41)
Accepted packet rate average = 0.0047801
	minimum = 0.00417093 (at node 26)
	maximum = 0.00547947 (at node 41)
Injected flit rate average = 0.0101872
	minimum = 0.00617536 (at node 22)
	maximum = 0.0152479 (at node 37)
Accepted flit rate average= 0.0101872
	minimum = 0.00798868 (at node 34)
	maximum = 0.0121353 (at node 17)
Injected packet length average = 2.13116
Accepted packet length average = 2.13116
Total in-flight flits = 0 (0 measured)
====== Overall Traffic Statistics ======
====== Traffic class 0 ======
Packet latency average = 16.6533 (1 samples)
	minimum = 6 (1 samples)
	maximum = 752 (1 samples)
Network latency average = 13.1381 (1 samples)
	minimum = 6 (1 samples)
	maximum = 747 (1 samples)
Flit latency average = 13.0611 (1 samples)
	minimum = 6 (1 samples)
	maximum = 743 (1 samples)
Fragmentation average = 0.00153688 (1 samples)
	minimum = 0 (1 samples)
	maximum = 658 (1 samples)
Injected packet rate average = 0.0047801 (1 samples)
	minimum = 0.00417093 (1 samples)
	maximum = 0.00547947 (1 samples)
Accepted packet rate average = 0.0047801 (1 samples)
	minimum = 0.00417093 (1 samples)
	maximum = 0.00547947 (1 samples)
Injected flit rate average = 0.0101872 (1 samples)
	minimum = 0.00617536 (1 samples)
	maximum = 0.0152479 (1 samples)
Accepted flit rate average = 0.0101872 (1 samples)
	minimum = 0.00798868 (1 samples)
	maximum = 0.0121353 (1 samples)
Injected packet size average = 2.13116 (1 samples)
Accepted packet size average = 2.13116 (1 samples)
Hops average = 1 (1 samples)
----------------------------END-of-Interconnect-DETAILS-------------------------


gpgpu_simulation_time = 0 days, 0 hrs, 41 min, 45 sec (2505 sec)
gpgpu_simulation_rate = 165854 (inst/sec)
gpgpu_simulation_rate = 851 (cycle/sec)

GPGPU-Sim PTX: cudaLaunch for 0x0x401ae2 (mode=performance simulation) on stream 0
GPGPU-Sim PTX: pushing kernel '_Z14calculate_tempiPfS_S_iiiiffffff' to stream 0, gridDim= (86,86,1) blockDim = (16,16,1) 
GPGPU-Sim uArch: Shader 0 bind to kernel 2 '_Z14calculate_tempiPfS_S_iiiiffffff'
GPGPU-Sim uArch: Shader 1 bind to kernel 2 '_Z14calculate_tempiPfS_S_iiiiffffff'
GPGPU-Sim uArch: Shader 2 bind to kernel 2 '_Z14calculate_tempiPfS_S_iiiiffffff'
GPGPU-Sim uArch: Shader 3 bind to kernel 2 '_Z14calculate_tempiPfS_S_iiiiffffff'
GPGPU-Sim uArch: Shader 4 bind to kernel 2 '_Z14calculate_tempiPfS_S_iiiiffffff'
GPGPU-Sim uArch: Shader 5 bind to kernel 2 '_Z14calculate_tempiPfS_S_iiiiffffff'
GPGPU-Sim uArch: Shader 6 bind to kernel 2 '_Z14calculate_tempiPfS_S_iiiiffffff'
GPGPU-Sim uArch: Shader 7 bind to kernel 2 '_Z14calculate_tempiPfS_S_iiiiffffff'
GPGPU-Sim uArch: Shader 8 bind to kernel 2 '_Z14calculate_tempiPfS_S_iiiiffffff'
GPGPU-Sim uArch: Shader 9 bind to kernel 2 '_Z14calculate_tempiPfS_S_iiiiffffff'
GPGPU-Sim uArch: Shader 10 bind to kernel 2 '_Z14calculate_tempiPfS_S_iiiiffffff'
GPGPU-Sim uArch: Shader 11 bind to kernel 2 '_Z14calculate_tempiPfS_S_iiiiffffff'
GPGPU-Sim uArch: Shader 12 bind to kernel 2 '_Z14calculate_tempiPfS_S_iiiiffffff'
GPGPU-Sim uArch: Shader 13 bind to kernel 2 '_Z14calculate_tempiPfS_S_iiiiffffff'
GPGPU-Sim uArch: Shader 14 bind to kernel 2 '_Z14calculate_tempiPfS_S_iiiiffffff'
GPGPU-Sim uArch: Shader 15 bind to kernel 2 '_Z14calculate_tempiPfS_S_iiiiffffff'
GPGPU-Sim uArch: Shader 16 bind to kernel 2 '_Z14calculate_tempiPfS_S_iiiiffffff'
GPGPU-Sim uArch: Shader 17 bind to kernel 2 '_Z14calculate_tempiPfS_S_iiiiffffff'
GPGPU-Sim uArch: Shader 18 bind to kernel 2 '_Z14calculate_tempiPfS_S_iiiiffffff'
GPGPU-Sim uArch: Shader 19 bind to kernel 2 '_Z14calculate_tempiPfS_S_iiiiffffff'
GPGPU-Sim uArch: Shader 20 bind to kernel 2 '_Z14calculate_tempiPfS_S_iiiiffffff'
GPGPU-Sim uArch: Shader 21 bind to kernel 2 '_Z14calculate_tempiPfS_S_iiiiffffff'
GPGPU-Sim uArch: Shader 22 bind to kernel 2 '_Z14calculate_tempiPfS_S_iiiiffffff'
GPGPU-Sim uArch: Shader 23 bind to kernel 2 '_Z14calculate_tempiPfS_S_iiiiffffff'
GPGPU-Sim uArch: Shader 24 bind to kernel 2 '_Z14calculate_tempiPfS_S_iiiiffffff'
GPGPU-Sim uArch: Shader 25 bind to kernel 2 '_Z14calculate_tempiPfS_S_iiiiffffff'
GPGPU-Sim uArch: Shader 26 bind to kernel 2 '_Z14calculate_tempiPfS_S_iiiiffffff'
GPGPU-Sim uArch: Shader 27 bind to kernel 2 '_Z14calculate_tempiPfS_S_iiiiffffff'
GPGPU-Sim uArch: Shader 0 bind to kernel 2 '_Z14calculate_tempiPfS_S_iiiiffffff'
GPGPU-Sim uArch: Shader 1 bind to kernel 2 '_Z14calculate_tempiPfS_S_iiiiffffff'
GPGPU-Sim uArch: Shader 2 bind to kernel 2 '_Z14calculate_tempiPfS_S_iiiiffffff'
GPGPU-Sim uArch: Shader 3 bind to kernel 2 '_Z14calculate_tempiPfS_S_iiiiffffff'
Destroy streams for kernel 2: size 0

GPGPU-Sim PTX: cudaLaunch for 0x0x401ae2 (mode=performance simulation) on stream 0
GPGPU-Sim PTX: pushing kernel '_Z14calculate_tempiPfS_S_iiiiffffff' to stream 0, gridDim= (86,86,1) blockDim = (16,16,1) 
kernel_name = _Z14calculate_tempiPfS_S_iiiiffffff 
kernel_launch_uid = 2 
gpu_sim_cycle = 1002943
gpu_sim_insn = 415466464
gpu_ipc =     414.2473
gpu_tot_sim_cycle = 3357010
gpu_tot_sim_insn = 830932928
gpu_tot_ipc =     247.5217
gpu_tot_issued_cta = 14792
max_total_param_size = 0
gpu_stall_dramfull = 95131
gpu_stall_icnt2sh    = 1198495
partiton_reqs_in_parallel = 22023578
partiton_reqs_in_parallel_total    = 41960911
partiton_level_parallism =      21.9590
partiton_level_parallism_total  =      19.0600
partiton_reqs_in_parallel_util = 22023578
partiton_reqs_in_parallel_util_total    = 41960911
gpu_sim_cycle_parition_util = 1002483
gpu_tot_sim_cycle_parition_util    = 1909143
partiton_level_parallism_util =      21.9690
partiton_level_parallism_util_total  =      21.9755
partiton_replys_in_parallel = 456024
partiton_replys_in_parallel_total    = 456444
L2_BW  =      43.0969 GB/Sec
L2_BW_total  =      25.7632 GB/Sec
gpu_total_sim_rate=190755

========= Core cache stats =========
L1I_cache:
	L1I_total_cache_accesses = 15480000
	L1I_total_cache_misses = 8688
	L1I_total_cache_miss_rate = 0.0006
	L1I_total_cache_pending_hits = 0
	L1I_total_cache_reservation_fails = 6846
L1D_cache:
	L1D_cache_core[0]: Access = 0, Miss = 0, Miss_rate = -nan, Pending_hits = 0, Reservation_fails = 0
	L1D_cache_core[1]: Access = 0, Miss = 0, Miss_rate = -nan, Pending_hits = 0, Reservation_fails = 0
	L1D_cache_core[2]: Access = 0, Miss = 0, Miss_rate = -nan, Pending_hits = 0, Reservation_fails = 0
	L1D_cache_core[3]: Access = 0, Miss = 0, Miss_rate = -nan, Pending_hits = 0, Reservation_fails = 0
	L1D_cache_core[4]: Access = 0, Miss = 0, Miss_rate = -nan, Pending_hits = 0, Reservation_fails = 0
	L1D_cache_core[5]: Access = 0, Miss = 0, Miss_rate = -nan, Pending_hits = 0, Reservation_fails = 0
[...]
Pcie_write_utilization: 0.735797
[0-25]: 0.000000, [26-50]: 0.000000, [51-75]: 1.000000, [76-100]: 0.000000
F:   222150----T:  2131917 	 	 	 Kl: 1 	 Sm: 0 	 T: kernel_launch(1289.511841)
F:   223848----T:   230260 	 St: c0000000 Sz: 45056 	 Sm: 0 	 T: memcpy_h2d(4.329507)
F:   230260----T:   234072 	 St: c000b000 Sz: 20480 	 Sm: 0 	 T: memcpy_h2d(2.573936)
F:   234072----T:   238713 	 St: c0010000 Sz: 28672 	 Sm: 0 	 T: memcpy_h2d(3.133693)
F:   238713----T:   244228 	 St: c0017000 Sz: 36864 	 Sm: 0 	 T: memcpy_h2d(3.723835)
F:   244228----T:   247314 	 St: c0020000 Sz: 12288 	 Sm: 0 	 T: memcpy_h2d(2.083727)
F:   247314----T:   262072 	 St: c0023000 Sz: 118784 	 Sm: 0 	 T: memcpy_h2d(9.964889)
F:   262072----T:   264677 	 St: c0800000 Sz: 4096 	 Sm: 0 	 T: memcpy_h2d(1.758947)
F:   264677----T:   272917 	 St: c0801000 Sz: 61440 	 Sm: 0 	 T: memcpy_h2d(5.563808)
F:   272917----T:   275522 	 St: c0810000 Sz: 4096 	 Sm: 0 	 T: memcpy_h2d(1.758947)
F:   275522----T:   283762 	 St: c0811000 Sz: 61440 	 Sm: 0 	 T: memcpy_h2d(5.563808)
F:   283762----T:   286367 	 St: c0820000 Sz: 4096 	 Sm: 0 	 T: memcpy_h2d(1.758947)
F:   286367----T:   302062 	 St: c0821000 Sz: 126976 	 Sm: 0 	 T: memcpy_h2d(10.597569)
F:   302062----T:   304667 	 St: c0400000 Sz: 4096 	 Sm: 0 	 T: memcpy_h2d(1.758947)
F:   304667----T:   312907 	 St: c0401000 Sz: 61440 	 Sm: 0 	 T: memcpy_h2d(5.563808)
F:   312907----T:   315512 	 St: c0410000 Sz: 4096 	 Sm: 0 	 T: memcpy_h2d(1.758947)
F:   315512----T:   323752 	 St: c0411000 Sz: 61440 	 Sm: 0 	 T: memcpy_h2d(5.563808)
F:   323752----T:   326357 	 St: c0420000 Sz: 4096 	 Sm: 0 	 T: memcpy_h2d(1.758947)
F:   326357----T:   342052 	 St: c0421000 Sz: 126976 	 Sm: 0 	 T: memcpy_h2d(10.597569)
F:   349667----T:   352753 	 St: c0040000 Sz: 12288 	 Sm: 0 	 T: memcpy_h2d(2.083727)
F:   352753----T:   382536 	 St: c0043000 Sz: 249856 	 Sm: 0 	 T: memcpy_h2d(20.110062)
F:   382536----T:   385141 	 St: c0840000 Sz: 4096 	 Sm: 0 	 T: memcpy_h2d(1.758947)
F:   385141----T:   415864 	 St: c0841000 Sz: 258048 	 Sm: 0 	 T: memcpy_h2d(20.744766)
F:   421169----T:   423774 	 St: c0440000 Sz: 4096 	 Sm: 0 	 T: memcpy_h2d(1.758947)
F:   423774----T:   454497 	 St: c0441000 Sz: 258048 	 Sm: 0 	 T: memcpy_h2d(20.744766)
F:   462832----T:   465918 	 St: c0080000 Sz: 12288 	 Sm: 0 	 T: memcpy_h2d(2.083727)
F:   465918----T:   525813 	 St: c0083000 Sz: 512000 	 Sm: 0 	 T: memcpy_h2d(40.442268)
F:   525813----T:   528418 	 St: c0880000 Sz: 4096 	 Sm: 0 	 T: memcpy_h2d(1.758947)
F:   528418----T:   589254 	 St: c0881000 Sz: 520192 	 Sm: 0 	 T: memcpy_h2d(41.077652)
F:   594748----T:   597353 	 St: c0480000 Sz: 4096 	 Sm: 0 	 T: memcpy_h2d(1.758947)
F:   597353----T:   658189 	 St: c0481000 Sz: 520192 	 Sm: 0 	 T: memcpy_h2d(41.077652)
F:   682509----T:   685595 	 St: c0100000 Sz: 12288 	 Sm: 0 	 T: memcpy_h2d(2.083727)
F:   685595----T:   805743 	 St: c0103000 Sz: 1036288 	 Sm: 0 	 T: memcpy_h2d(81.126266)
F:   805743----T:   808348 	 St: c0900000 Sz: 4096 	 Sm: 0 	 T: memcpy_h2d(1.758947)
F:   808348----T:   929437 	 St: c0901000 Sz: 1044480 	 Sm: 0 	 T: memcpy_h2d(81.761650)
F:   934917----T:   937522 	 St: c0500000 Sz: 4096 	 Sm: 0 	 T: memcpy_h2d(1.758947)
F:   937522----T:  1058611 	 St: c0501000 Sz: 1044480 	 Sm: 0 	 T: memcpy_h2d(81.761650)
F:  1118532----T:  1121618 	 St: c0200000 Sz: 12288 	 Sm: 0 	 T: memcpy_h2d(2.083727)
F:  1121618----T:  1128940 	 St: c0203000 Sz: 53248 	 Sm: 0 	 T: memcpy_h2d(4.943957)
F:  1128940----T:  1131545 	 St: c0a00000 Sz: 4096 	 Sm: 0 	 T: memcpy_h2d(1.758947)
F:  1131545----T:  1139785 	 St: c0a01000 Sz: 61440 	 Sm: 0 	 T: memcpy_h2d(5.563808)
F:  1140390----T:  1142995 	 St: c0210000 Sz: 4096 	 Sm: 0 	 T: memcpy_h2d(1.758947)
F:  1142995----T:  1151235 	 St: c0211000 Sz: 61440 	 Sm: 0 	 T: memcpy_h2d(5.563808)
F:  1151235----T:  1153840 	 St: c0600000 Sz: 4096 	 Sm: 0 	 T: memcpy_h2d(1.758947)
F:  1153840----T:  1162080 	 St: c0601000 Sz: 61440 	 Sm: 0 	 T: memcpy_h2d(5.563808)
F:  1162080----T:  1164685 	 St: c0a10000 Sz: 4096 	 Sm: 0 	 T: memcpy_h2d(1.758947)
F:  1164685----T:  1172925 	 St: c0a11000 Sz: 61440 	 Sm: 0 	 T: memcpy_h2d(5.563808)
F:  1174131----T:  1177217 	 St: c0220000 Sz: 12288 	 Sm: 0 	 T: memcpy_h2d(2.083727)
F:  1177217----T:  1191975 	 St: c0223000 Sz: 118784 	 Sm: 0 	 T: memcpy_h2d(9.964889)
F:  1191975----T:  1195061 	 St: c0610000 Sz: 12288 	 Sm: 0 	 T: memcpy_h2d(2.083727)
F:  1195061----T:  1202383 	 St: c0613000 Sz: 53248 	 Sm: 0 	 T: memcpy_h2d(4.943957)
F:  1202383----T:  1204988 	 St: c0a20000 Sz: 4096 	 Sm: 0 	 T: memcpy_h2d(1.758947)
F:  1204988----T:  1220683 	 St: c0a21000 Sz: 126976 	 Sm: 0 	 T: memcpy_h2d(10.597569)
F:  1222294----T:  1224899 	 St: c0240000 Sz: 4096 	 Sm: 0 	 T: memcpy_h2d(1.758947)
F:  1224899----T:  1255622 	 St: c0241000 Sz: 258048 	 Sm: 0 	 T: memcpy_h2d(20.744766)
F:  1255622----T:  1258227 	 St: c0620000 Sz: 4096 	 Sm: 0 	 T: memcpy_h2d(1.758947)
F:  1258227----T:  1273922 	 St: c0621000 Sz: 126976 	 Sm: 0 	 T: memcpy_h2d(10.597569)
F:  1273922----T:  1276527 	 St: c0a40000 Sz: 4096 	 Sm: 0 	 T: memcpy_h2d(1.758947)
F:  1276527----T:  1307250 	 St: c0a41000 Sz: 258048 	 Sm: 0 	 T: memcpy_h2d(20.744766)
F:  1314636----T:  1317241 	 St: c0640000 Sz: 4096 	 Sm: 0 	 T: memcpy_h2d(1.758947)
F:  1317241----T:  1347964 	 St: c0641000 Sz: 258048 	 Sm: 0 	 T: memcpy_h2d(20.744766)
F:  1356580----T:  1359666 	 St: c0280000 Sz: 12288 	 Sm: 0 	 T: memcpy_h2d(2.083727)
F:  1359666----T:  1419561 	 St: c0283000 Sz: 512000 	 Sm: 0 	 T: memcpy_h2d(40.442268)
F:  1419561----T:  1422166 	 St: c0a80000 Sz: 4096 	 Sm: 0 	 T: memcpy_h2d(1.758947)
F:  1422166----T:  1483002 	 St: c0a81000 Sz: 520192 	 Sm: 0 	 T: memcpy_h2d(41.077652)
F:  1488406----T:  1491011 	 St: c0680000 Sz: 4096 	 Sm: 0 	 T: memcpy_h2d(1.758947)
F:  1491011----T:  1551847 	 St: c0681000 Sz: 520192 	 Sm: 0 	 T: memcpy_h2d(41.077652)
F:  1575499----T:  1578104 	 St: c0300000 Sz: 4096 	 Sm: 0 	 T: memcpy_h2d(1.758947)
F:  1578104----T:  1699193 	 St: c0301000 Sz: 1044480 	 Sm: 0 	 T: memcpy_h2d(81.761650)
F:  1699568----T:  1702173 	 St: c0b00000 Sz: 4096 	 Sm: 0 	 T: memcpy_h2d(1.758947)
F:  1699568----T:  1708270 	 St: c0000000 Sz: 65536 	 Sm: 0 	 T: write_back(5.875760)
F:  1708271----T:  1829360 	 St: c0b01000 Sz: 1044480 	 Sm: 0 	 T: memcpy_h2d(81.761650)
F:  1708271----T:  1716973 	 St: c0010000 Sz: 65536 	 Sm: 0 	 T: write_back(5.875760)
F:  1835311----T:  1837916 	 St: c0700000 Sz: 4096 	 Sm: 0 	 T: memcpy_h2d(1.758947)
F:  1835311----T:  1851474 	 St: c0020000 Sz: 131072 	 Sm: 0 	 T: write_back(10.913572)
F:  1851474----T:  1882667 	 St: c0040000 Sz: 262144 	 Sm: 0 	 T: write_back(21.062120)
F:  1882667----T:  1943974 	 St: c0080000 Sz: 524288 	 Sm: 0 	 T: write_back(41.395679)
F:  1943975----T:  2065064 	 St: c0701000 Sz: 1044480 	 Sm: 0 	 T: memcpy_h2d(81.761650)
F:  1943975----T:  2065535 	 St: c0100000 Sz: 1048576 	 Sm: 0 	 T: write_back(82.079674)
F:  2354067----T:  3357010 	 	 	 Kl: 2 	 Sm: 0 	 T: kernel_launch(677.206604)
F:  2359879----T:  2362484 	 St: c0000000 Sz: 4096 	 Sm: 0 	 T: memcpy_h2d(1.758947)
F:  2362484----T:  2370724 	 St: c0001000 Sz: 61440 	 Sm: 0 	 T: memcpy_h2d(5.563808)
F:  2370724----T:  2375365 	 St: c0010000 Sz: 28672 	 Sm: 0 	 T: memcpy_h2d(3.133693)
F:  2375365----T:  2380880 	 St: c0017000 Sz: 36864 	 Sm: 0 	 T: memcpy_h2d(3.723835)
F:  2380880----T:  2383485 	 St: c0020000 Sz: 4096 	 Sm: 0 	 T: memcpy_h2d(1.758947)
F:  2383485----T:  2399180 	 St: c0021000 Sz: 126976 	 Sm: 0 	 T: memcpy_h2d(10.597569)
F:  2413592----T:  2416197 	 St: c0040000 Sz: 4096 	 Sm: 0 	 T: memcpy_h2d(1.758947)
F:  2416197----T:  2446920 	 St: c0041000 Sz: 258048 	 Sm: 0 	 T: memcpy_h2d(20.744766)
F:  2461711----T:  2464797 	 St: c0080000 Sz: 12288 	 Sm: 0 	 T: memcpy_h2d(2.083727)
F:  2461711----T:  2470413 	 St: c0200000 Sz: 65536 	 Sm: 0 	 T: write_back(5.875760)
F:  2470414----T:  2530309 	 St: c0083000 Sz: 512000 	 Sm: 0 	 T: memcpy_h2d(40.442268)
F:  2470414----T:  2479116 	 St: c0210000 Sz: 65536 	 Sm: 0 	 T: write_back(5.875760)
F:  2560864----T:  2563469 	 St: c0100000 Sz: 4096 	 Sm: 0 	 T: memcpy_h2d(1.758947)
F:  2560864----T:  2577027 	 St: c0220000 Sz: 131072 	 Sm: 0 	 T: write_back(10.913572)
F:  2577027----T:  2608220 	 St: c0240000 Sz: 262144 	 Sm: 0 	 T: write_back(21.062120)
F:  2608220----T:  2669527 	 St: c0280000 Sz: 524288 	 Sm: 0 	 T: write_back(41.395679)
F:  2669528----T:  2790617 	 St: c0101000 Sz: 1044480 	 Sm: 0 	 T: memcpy_h2d(81.761650)
F:  2669528----T:  2791088 	 St: c0300000 Sz: 1048576 	 Sm: 0 	 T: write_back(82.079674)
F:  2857031----T:  2860117 	 St: c0200000 Sz: 12288 	 Sm: 0 	 T: memcpy_h2d(2.083727)
F:  2860117----T:  2867439 	 St: c0203000 Sz: 53248 	 Sm: 0 	 T: memcpy_h2d(4.943957)
F:  2873813----T:  2876418 	 St: c0210000 Sz: 4096 	 Sm: 0 	 T: memcpy_h2d(1.758947)
F:  2876418----T:  2884658 	 St: c0211000 Sz: 61440 	 Sm: 0 	 T: memcpy_h2d(5.563808)
F:  2884658----T:  2887263 	 St: c0220000 Sz: 4096 	 Sm: 0 	 T: memcpy_h2d(1.758947)
F:  2887263----T:  2902958 	 St: c0221000 Sz: 126976 	 Sm: 0 	 T: memcpy_h2d(10.597569)
F:  2910350----T:  2912955 	 St: c0240000 Sz: 4096 	 Sm: 0 	 T: memcpy_h2d(1.758947)
F:  2912955----T:  2943678 	 St: c0241000 Sz: 258048 	 Sm: 0 	 T: memcpy_h2d(20.744766)
F:  2958684----T:  2961770 	 St: c0280000 Sz: 12288 	 Sm: 0 	 T: memcpy_h2d(2.083727)
F:  2958684----T:  2967386 	 St: c0400000 Sz: 65536 	 Sm: 0 	 T: write_back(5.875760)
F:  2967387----T:  3027282 	 St: c0283000 Sz: 512000 	 Sm: 0 	 T: memcpy_h2d(40.442268)
F:  2967387----T:  2976089 	 St: c0410000 Sz: 65536 	 Sm: 0 	 T: write_back(5.875760)
F:  3061946----T:  3064551 	 St: c0300000 Sz: 4096 	 Sm: 0 	 T: memcpy_h2d(1.758947)
F:  3061946----T:  3078109 	 St: c0420000 Sz: 131072 	 Sm: 0 	 T: write_back(10.913572)
F:  3078109----T:  3109302 	 St: c0440000 Sz: 262144 	 Sm: 0 	 T: write_back(21.062120)
F:  3109302----T:  3170609 	 St: c0480000 Sz: 524288 	 Sm: 0 	 T: write_back(41.395679)
F:  3170610----T:  3291699 	 St: c0301000 Sz: 1044480 	 Sm: 0 	 T: memcpy_h2d(81.761650)
F:  3170610----T:  3292170 	 St: c0500000 Sz: 1048576 	 Sm: 0 	 T: write_back(82.079674)
F:  3579160----T:  4583074 	 	 	 Kl: 3 	 Sm: 0 	 T: kernel_launch(677.862244)
F:  3584888----T:  3587493 	 St: c0400000 Sz: 4096 	 Sm: 0 	 T: memcpy_h2d(1.758947)
F:  3587493----T:  3595733 	 St: c0401000 Sz: 61440 	 Sm: 0 	 T: memcpy_h2d(5.563808)
F:  3595733----T:  3598338 	 St: c0410000 Sz: 4096 	 Sm: 0 	 T: memcpy_h2d(1.758947)
F:  3598338----T:  3606578 	 St: c0411000 Sz: 61440 	 Sm: 0 	 T: memcpy_h2d(5.563808)
F:  3606578----T:  3609664 	 St: c0420000 Sz: 12288 	 Sm: 0 	 T: memcpy_h2d(2.083727)
F:  3609664----T:  3624422 	 St: c0423000 Sz: 118784 	 Sm: 0 	 T: memcpy_h2d(9.964889)
F:  3638498----T:  3641103 	 St: c0440000 Sz: 4096 	 Sm: 0 	 T: memcpy_h2d(1.758947)
F:  3641103----T:  3671826 	 St: c0441000 Sz: 258048 	 Sm: 0 	 T: memcpy_h2d(20.744766)
F:  3686537----T:  3689623 	 St: c0480000 Sz: 12288 	 Sm: 0 	 T: memcpy_h2d(2.083727)
F:  3686537----T:  3695239 	 St: c0600000 Sz: 65536 	 Sm: 0 	 T: write_back(5.875760)
F:  3695240----T:  3755135 	 St: c0483000 Sz: 512000 	 Sm: 0 	 T: memcpy_h2d(40.442268)
F:  3695240----T:  3703942 	 St: c0610000 Sz: 65536 	 Sm: 0 	 T: write_back(5.875760)
F:  3789784----T:  3792389 	 St: c0500000 Sz: 4096 	 Sm: 0 	 T: memcpy_h2d(1.758947)
F:  3789784----T:  3805947 	 St: c0620000 Sz: 131072 	 Sm: 0 	 T: write_back(10.913572)
F:  3805947----T:  3837140 	 St: c0640000 Sz: 262144 	 Sm: 0 	 T: write_back(21.062120)
F:  3837140----T:  3898447 	 St: c0680000 Sz: 524288 	 Sm: 0 	 T: write_back(41.395679)
F:  3898448----T:  4019537 	 St: c0501000 Sz: 1044480 	 Sm: 0 	 T: memcpy_h2d(81.761650)
F:  3898448----T:  4020008 	 St: c0700000 Sz: 1048576 	 Sm: 0 	 T: write_back(82.079674)
F:  4085820----T:  4088906 	 St: c0600000 Sz: 12288 	 Sm: 0 	 T: memcpy_h2d(2.083727)
F:  4088906----T:  4096228 	 St: c0603000 Sz: 53248 	 Sm: 0 	 T: memcpy_h2d(4.943957)
F:  4096228----T:  4098833 	 St: c0610000 Sz: 4096 	 Sm: 0 	 T: memcpy_h2d(1.758947)
F:  4098833----T:  4107073 	 St: c0611000 Sz: 61440 	 Sm: 0 	 T: memcpy_h2d(5.563808)
F:  4114264----T:  4117350 	 St: c0620000 Sz: 12288 	 Sm: 0 	 T: memcpy_h2d(2.083727)
F:  4117350----T:  4132108 	 St: c0623000 Sz: 118784 	 Sm: 0 	 T: memcpy_h2d(9.964889)
F:  4139371----T:  4142457 	 St: c0640000 Sz: 12288 	 Sm: 0 	 T: memcpy_h2d(2.083727)
F:  4142457----T:  4172240 	 St: c0643000 Sz: 249856 	 Sm: 0 	 T: memcpy_h2d(20.110062)
F:  4187124----T:  4189729 	 St: c0680000 Sz: 4096 	 Sm: 0 	 T: memcpy_h2d(1.758947)
F:  4187124----T:  4195826 	 St: c0000000 Sz: 65536 	 Sm: 0 	 T: write_back(5.875760)
F:  4195827----T:  4256663 	 St: c0681000 Sz: 520192 	 Sm: 0 	 T: memcpy_h2d(41.077652)
F:  4195827----T:  4204529 	 St: c0010000 Sz: 65536 	 Sm: 0 	 T: write_back(5.875760)
F:  4287639----T:  4290725 	 St: c0700000 Sz: 12288 	 Sm: 0 	 T: memcpy_h2d(2.083727)
F:  4287639----T:  4303802 	 St: c0020000 Sz: 131072 	 Sm: 0 	 T: write_back(10.913572)
F:  4303802----T:  4334995 	 St: c0040000 Sz: 262144 	 Sm: 0 	 T: write_back(21.062120)
F:  4334995----T:  4396302 	 St: c0080000 Sz: 524288 	 Sm: 0 	 T: write_back(41.395679)
F:  4396303----T:  4516451 	 St: c0703000 Sz: 1036288 	 Sm: 0 	 T: memcpy_h2d(81.126266)
F:  4396303----T:  4517863 	 St: c0100000 Sz: 1048576 	 Sm: 0 	 T: write_back(82.079674)
F:  4805224----T:  5810144 	 	 	 Kl: 4 	 Sm: 0 	 T: kernel_launch(678.541504)
F:  4811022----T:  4814108 	 St: c0000000 Sz: 12288 	 Sm: 0 	 T: memcpy_h2d(2.083727)
F:  4814108----T:  4821430 	 St: c0003000 Sz: 53248 	 Sm: 0 	 T: memcpy_h2d(4.943957)
F:  4821430----T:  4824035 	 St: c0010000 Sz: 4096 	 Sm: 0 	 T: memcpy_h2d(1.758947)
F:  4824035----T:  4832275 	 St: c0011000 Sz: 61440 	 Sm: 0 	 T: memcpy_h2d(5.563808)
F:  4832275----T:  4835361 	 St: c0020000 Sz: 12288 	 Sm: 0 	 T: memcpy_h2d(2.083727)
F:  4835361----T:  4850119 	 St: c0023000 Sz: 118784 	 Sm: 0 	 T: memcpy_h2d(9.964889)
F:  4864512----T:  4867117 	 St: c0040000 Sz: 4096 	 Sm: 0 	 T: memcpy_h2d(1.758947)
F:  4867117----T:  4897840 	 St: c0041000 Sz: 258048 	 Sm: 0 	 T: memcpy_h2d(20.744766)
F:  4912615----T:  4915701 	 St: c0080000 Sz: 12288 	 Sm: 0 	 T: memcpy_h2d(2.083727)
F:  4912615----T:  4921317 	 St: c0200000 Sz: 65536 	 Sm: 0 	 T: write_back(5.875760)
F:  4921318----T:  4981213 	 St: c0083000 Sz: 512000 	 Sm: 0 	 T: memcpy_h2d(40.442268)
F:  4921318----T:  4930020 	 St: c0210000 Sz: 65536 	 Sm: 0 	 T: write_back(5.875760)
F:  5011821----T:  5014426 	 St: c0100000 Sz: 4096 	 Sm: 0 	 T: memcpy_h2d(1.758947)
F:  5011821----T:  5027984 	 St: c0220000 Sz: 131072 	 Sm: 0 	 T: write_back(10.913572)
F:  5027984----T:  5059177 	 St: c0240000 Sz: 262144 	 Sm: 0 	 T: write_back(21.062120)
F:  5059177----T:  5120484 	 St: c0280000 Sz: 524288 	 Sm: 0 	 T: write_back(41.395679)
F:  5120485----T:  5241574 	 St: c0101000 Sz: 1044480 	 Sm: 0 	 T: memcpy_h2d(81.761650)
F:  5120485----T:  5242045 	 St: c0300000 Sz: 1048576 	 Sm: 0 	 T: write_back(82.079674)
F:  5307959----T:  5311045 	 St: c0200000 Sz: 12288 	 Sm: 0 	 T: memcpy_h2d(2.083727)
F:  5311045----T:  5318367 	 St: c0203000 Sz: 53248 	 Sm: 0 	 T: memcpy_h2d(4.943957)
F:  5324762----T:  5327367 	 St: c0210000 Sz: 4096 	 Sm: 0 	 T: memcpy_h2d(1.758947)
F:  5327367----T:  5335607 	 St: c0211000 Sz: 61440 	 Sm: 0 	 T: memcpy_h2d(5.563808)
F:  5335607----T:  5338212 	 St: c0220000 Sz: 4096 	 Sm: 0 	 T: memcpy_h2d(1.758947)
F:  5338212----T:  5353907 	 St: c0221000 Sz: 126976 	 Sm: 0 	 T: memcpy_h2d(10.597569)
F:  5361675----T:  5364280 	 St: c0240000 Sz: 4096 	 Sm: 0 	 T: memcpy_h2d(1.758947)
F:  5364280----T:  5395003 	 St: c0241000 Sz: 258048 	 Sm: 0 	 T: memcpy_h2d(20.744766)
F:  5409861----T:  5412466 	 St: c0280000 Sz: 4096 	 Sm: 0 	 T: memcpy_h2d(1.758947)
F:  5409861----T:  5418563 	 St: c0400000 Sz: 65536 	 Sm: 0 	 T: write_back(5.875760)
F:  5418564----T:  5479400 	 St: c0281000 Sz: 520192 	 Sm: 0 	 T: memcpy_h2d(41.077652)
F:  5418564----T:  5427266 	 St: c0410000 Sz: 65536 	 Sm: 0 	 T: write_back(5.875760)
F:  5515128----T:  5517733 	 St: c0300000 Sz: 4096 	 Sm: 0 	 T: memcpy_h2d(1.758947)
F:  5515128----T:  5531291 	 St: c0420000 Sz: 131072 	 Sm: 0 	 T: write_back(10.913572)
F:  5531291----T:  5562484 	 St: c0440000 Sz: 262144 	 Sm: 0 	 T: write_back(21.062120)
F:  5562484----T:  5623791 	 St: c0480000 Sz: 524288 	 Sm: 0 	 T: write_back(41.395679)
F:  5623792----T:  5744881 	 St: c0301000 Sz: 1044480 	 Sm: 0 	 T: memcpy_h2d(81.761650)
F:  5623792----T:  5745352 	 St: c0500000 Sz: 1048576 	 Sm: 0 	 T: write_back(82.079674)
F:  5810144----T:  5812749 	 St: 0 Sz: 4096 	 Sm: 0 	 T: device_sync(1.758947)
F:  5810144----T:  5818384 	 St: 0 Sz: 61440 	 Sm: 0 	 T: device_sync(5.563808)
F:  5820989----T:  5823594 	 St: 0 Sz: 4096 	 Sm: 0 	 T: device_sync(1.758947)
F:  5820989----T:  5829229 	 St: 0 Sz: 61440 	 Sm: 0 	 T: device_sync(5.563808)
F:  5831834----T:  5834439 	 St: 0 Sz: 4096 	 Sm: 0 	 T: device_sync(1.758947)
F:  5831834----T:  5847529 	 St: 0 Sz: 126976 	 Sm: 0 	 T: device_sync(10.597569)
F:  5850134----T:  5852739 	 St: 0 Sz: 4096 	 Sm: 0 	 T: device_sync(1.758947)
F:  5850134----T:  5880857 	 St: 0 Sz: 258048 	 Sm: 0 	 T: device_sync(20.744766)
F:  5883462----T:  5886067 	 St: 0 Sz: 4096 	 Sm: 0 	 T: device_sync(1.758947)
F:  5883462----T:  5944298 	 St: 0 Sz: 520192 	 Sm: 0 	 T: device_sync(41.077652)
F:  5946903----T:  5949508 	 St: 0 Sz: 4096 	 Sm: 0 	 T: device_sync(1.758947)
F:  5946903----T:  6067992 	 St: 0 Sz: 1044480 	 Sm: 0 	 T: device_sync(81.761650)
F:  6070597----T:  6073202 	 St: 0 Sz: 4096 	 Sm: 0 	 T: device_sync(1.758947)
F:  6070597----T:  6078837 	 St: 0 Sz: 61440 	 Sm: 0 	 T: device_sync(5.563808)
F:  6081442----T:  6084047 	 St: 0 Sz: 4096 	 Sm: 0 	 T: device_sync(1.758947)
F:  6081442----T:  6089682 	 St: 0 Sz: 61440 	 Sm: 0 	 T: device_sync(5.563808)
F:  6092287----T:  6094892 	 St: 0 Sz: 4096 	 Sm: 0 	 T: device_sync(1.758947)
F:  6092287----T:  6107982 	 St: 0 Sz: 126976 	 Sm: 0 	 T: device_sync(10.597569)
F:  6110587----T:  6113192 	 St: 0 Sz: 4096 	 Sm: 0 	 T: device_sync(1.758947)
F:  6110587----T:  6141310 	 St: 0 Sz: 258048 	 Sm: 0 	 T: device_sync(20.744766)
F:  6143915----T:  6146520 	 St: 0 Sz: 4096 	 Sm: 0 	 T: device_sync(1.758947)
F:  6143915----T:  6204751 	 St: 0 Sz: 520192 	 Sm: 0 	 T: device_sync(41.077652)
F:  6207356----T:  6209961 	 St: 0 Sz: 4096 	 Sm: 0 	 T: device_sync(1.758947)
F:  6207356----T:  6328445 	 St: 0 Sz: 1044480 	 Sm: 0 	 T: device_sync(81.761650)
F:  6331050----T:  6333655 	 St: 0 Sz: 4096 	 Sm: 0 	 T: device_sync(1.758947)
F:  6331050----T:  6339290 	 St: 0 Sz: 61440 	 Sm: 0 	 T: device_sync(5.563808)
F:  6341895----T:  6344500 	 St: 0 Sz: 4096 	 Sm: 0 	 T: device_sync(1.758947)
F:  6341895----T:  6350135 	 St: 0 Sz: 61440 	 Sm: 0 	 T: device_sync(5.563808)
F:  6352740----T:  6355345 	 St: 0 Sz: 4096 	 Sm: 0 	 T: device_sync(1.758947)
F:  6352740----T:  6368435 	 St: 0 Sz: 126976 	 Sm: 0 	 T: device_sync(10.597569)
F:  6371040----T:  6373645 	 St: 0 Sz: 4096 	 Sm: 0 	 T: device_sync(1.758947)
F:  6371040----T:  6401763 	 St: 0 Sz: 258048 	 Sm: 0 	 T: device_sync(20.744766)
F:  6404368----T:  6406973 	 St: 0 Sz: 4096 	 Sm: 0 	 T: device_sync(1.758947)
F:  6404368----T:  6465204 	 St: 0 Sz: 520192 	 Sm: 0 	 T: device_sync(41.077652)
F:  6467809----T:  6470414 	 St: 0 Sz: 4096 	 Sm: 0 	 T: device_sync(1.758947)
F:  6467809----T:  6588898 	 St: 0 Sz: 1044480 	 Sm: 0 	 T: device_sync(81.761650)
Tot_prefetch_time: 0(cycle), 0.000000(us)
Tot_kernel_exec_time: 4921544(cycle), 3323.122314(us)
Tot_kernel_exec_time_and_fault_time: 9719984(cycle), 6563.122070(us)
Tot_memcpy_h2d_time: 3113937(cycle), 2102.590820(us)
Tot_memcpy_d2h_time: 0(cycle), 0.000000(us)
Tot_memcpy_time: 3113937(cycle), 2102.590820(us)
Tot_devicesync_time: 781359(cycle), 527.588806(us)
Tot_writeback_time: 1733389(cycle), 1170.417969(us)
Tot_dma_time: 0(cycle), 0.000000(us)
Tot_memcpy_d2h_sync_wb_time: 2514748(cycle), 1698.006714(us)
GPGPU-Sim: *** exit detected ***
