

        *** GPGPU-Sim Simulator Version 3.2.2  [build gpgpu-sim_git-commit-ccc09f1cf63a6cc8b61cc8f41f59ef817e0fb5a2_modified_0] ***


GPGPU-Sim PTX: simulation mode 0 (can change with PTX_SIM_MODE_FUNC environment variable:
               1=functional simulation only, 0=detailed performance simulator)
GPGPU-Sim: Configuration options:

-network_mode                           1 # Interconnection network mode
-inter_config_file   config_fermi_islip.icnt # Interconnection network config file
-gpgpu_ptx_use_cuobjdump                    1 # Use cuobjdump to extract ptx and sass from binaries
-gpgpu_experimental_lib_support                    0 # Try to extract code from cuda libraries [Broken because of unknown cudaGetExportTable]
-gpgpu_ptx_convert_to_ptxplus                    0 # Convert SASS (native ISA) to ptxplus and run ptxplus
-gpgpu_ptx_force_max_capability                   20 # Force maximum compute capability
-gpgpu_ptx_inst_debug_to_file                    0 # Dump executed instructions' debug information to file
-gpgpu_ptx_inst_debug_file       inst_debug.txt # Executed instructions' debug output file
-gpgpu_ptx_inst_debug_thread_uid                    1 # Thread UID for executed instructions' debug output
-gpgpu_simd_model                       1 # 1 = post-dominator
-gpgpu_shader_core_pipeline              2048:32 # shader core pipeline config, i.e., {<nthread>:<warpsize>}
-gpgpu_tex_cache:l1  16:128:24,L:R:m:N:L,F:128:4,128:2 # per-shader L1 texture cache  (READ-ONLY) config  {<nsets>:<bsize>:<assoc>,<rep>:<wr>:<alloc>:<wr_alloc>,<mshr>:<N>:<merge>,<mq>:<rf>}
-gpgpu_const_cache:l1 128:64:2,L:R:f:N:L,A:2:64,4 # per-shader L1 constant memory cache  (READ-ONLY) config  {<nsets>:<bsize>:<assoc>,<rep>:<wr>:<alloc>:<wr_alloc>,<mshr>:<N>:<merge>,<mq>} 
-gpgpu_cache:il1     8:128:4,L:R:f:N:L,A:2:48,4 # shader L1 instruction cache config  {<nsets>:<bsize>:<assoc>,<rep>:<wr>:<alloc>:<wr_alloc>,<mshr>:<N>:<merge>,<mq>} 
-gpgpu_cache:dl1     64:128:6,L:L:m:N:H,A:128:8,8 # per-shader L1 data cache config  {<nsets>:<bsize>:<assoc>,<rep>:<wr>:<alloc>:<wr_alloc>,<mshr>:<N>:<merge>,<mq> | none}
-gpgpu_cache:dl1PrefL1                 none # per-shader L1 data cache config  {<nsets>:<bsize>:<assoc>,<rep>:<wr>:<alloc>:<wr_alloc>,<mshr>:<N>:<merge>,<mq> | none}
-gpgpu_cache:dl1PrefShared                 none # per-shader L1 data cache config  {<nsets>:<bsize>:<assoc>,<rep>:<wr>:<alloc>:<wr_alloc>,<mshr>:<N>:<merge>,<mq> | none}
-gmem_skip_L1D                          1 # global memory access skip L1D cache (implements -Xptxas -dlcm=cg, default=no skip)
-gpgpu_perfect_mem                      0 # enable perfect memory mode (no cache miss)
-n_regfile_gating_group                    4 # group of lanes that should be read/written together)
-gpgpu_clock_gated_reg_file                    0 # enable clock gated reg file for power calculations
-gpgpu_clock_gated_lanes                    0 # enable clock gated lanes for power calculations
-gpgpu_shader_registers                65536 # Number of registers per shader core. Limits number of concurrent CTAs. (default 8192)
-gpgpu_shader_cta                      32 # Maximum number of concurrent CTAs in shader (default 8)
-gpgpu_num_cta_barriers                   16 # Maximum number of named barriers per CTA (default 16)
-gpgpu_n_clusters                      28 # number of processing clusters
-gpgpu_n_cores_per_cluster                    1 # number of simd cores per cluster
-gpgpu_n_cluster_ejection_buffer_size                    8 # number of packets in ejection buffer
-gpgpu_n_ldst_response_buffer_size                    2 # number of response packets in ld/st unit ejection buffer
-gpgpu_shmem_size                   16384 # Size of shared memory per shader core (default 16kB)
-gpgpu_shmem_size                   98304 # Size of shared memory per shader core (default 16kB)
-gpgpu_shmem_size_PrefL1                16384 # Size of shared memory per shader core (default 16kB)
-gpgpu_shmem_size_PrefShared                16384 # Size of shared memory per shader core (default 16kB)
-gpgpu_shmem_num_banks                   32 # Number of banks in the shared memory in each shader core (default 16)
-gpgpu_shmem_limited_broadcast                    0 # Limit shared memory to do one broadcast per cycle (default on)
-gpgpu_shmem_warp_parts                    1 # Number of portions a warp is divided into for shared memory bank conflict check 
-gpgpu_warpdistro_shader                   -1 # Specify which shader core to collect the warp size distribution from
-gpgpu_warp_issue_shader                    0 # Specify which shader core to collect the warp issue distribution from
-gpgpu_local_mem_map                    1 # Mapping from local memory space address to simulated GPU physical address space (default = enabled)
-gpgpu_num_reg_banks                   32 # Number of register banks (default = 8)
-gpgpu_reg_bank_use_warp_id                    0 # Use warp ID in mapping registers to banks (default = off)
-gpgpu_operand_collector_num_units_sp                   20 # number of collector units (default = 4)
-gpgpu_operand_collector_num_units_sfu                    4 # number of collector units (default = 4)
-gpgpu_operand_collector_num_units_mem                    8 # number of collector units (default = 2)
-gpgpu_operand_collector_num_units_gen                    0 # number of collector units (default = 0)
-gpgpu_operand_collector_num_in_ports_sp                    4 # number of collector unit in ports (default = 1)
-gpgpu_operand_collector_num_in_ports_sfu                    1 # number of collector unit in ports (default = 1)
-gpgpu_operand_collector_num_in_ports_mem                    1 # number of collector unit in ports (default = 1)
-gpgpu_operand_collector_num_in_ports_gen                    0 # number of collector unit in ports (default = 0)
-gpgpu_operand_collector_num_out_ports_sp                    4 # number of collector unit in ports (default = 1)
-gpgpu_operand_collector_num_out_ports_sfu                    1 # number of collector unit in ports (default = 1)
-gpgpu_operand_collector_num_out_ports_mem                    1 # number of collector unit in ports (default = 1)
-gpgpu_operand_collector_num_out_ports_gen                    0 # number of collector unit in ports (default = 0)
-gpgpu_coalesce_arch                   13 # Coalescing arch (default = 13, anything else is off for now)
-gpgpu_num_sched_per_core                    2 # Number of warp schedulers per core
-gpgpu_max_insn_issue_per_warp                    2 # Max number of instructions that can be issued per warp in one cycle by scheduler
-gpgpu_simt_core_sim_order                    1 # Select the simulation order of cores in a cluster (0=Fix, 1=Round-Robin)
-gpgpu_pipeline_widths        4,1,1,4,1,1,6 # Pipeline widths ID_OC_SP,ID_OC_SFU,ID_OC_MEM,OC_EX_SP,OC_EX_SFU,OC_EX_MEM,EX_WB
-gpgpu_num_sp_units                     4 # Number of SP units (default=1)
-gpgpu_num_sfu_units                    1 # Number of SF units (default=1)
-gpgpu_num_mem_units                    1 # Number if ldst units (default=1) WARNING: not hooked up to anything
-gpgpu_scheduler                      gto # Scheduler configuration: < lrr | gto | two_level_active > If two_level_active:<num_active_warps>:<inner_prioritization>:<outer_prioritization>For complete list of prioritization values see shader.h enum scheduler_prioritization_typeDefault: gto
-gpgpu_concurrent_kernel_sm                    0 # Support concurrent kernels on a SM (default = disabled)
-tlb_size                            4096 # Number of tlb entries per SM.
-gpgpu_dram_scheduler                    1 # 0 = fifo, 1 = FR-FCFS (defaul)
-gpgpu_dram_partition_queues              8:8:8:8 # i2$:$2d:d2$:$2i
-l2_ideal                               0 # Use a ideal L2 cache that always hit
-gpgpu_cache:dl2     64:128:16,L:B:m:W:L,A:1024:1024,4:0,32 # unified banked L2 data cache config  {<nsets>:<bsize>:<assoc>,<rep>:<wr>:<alloc>:<wr_alloc>,<mshr>:<N>:<merge>,<mq>}
-gpgpu_cache:dl2_texture_only                    0 # L2 cache used for texture only
-gpgpu_n_mem                           11 # number of memory modules (e.g. memory controllers) in gpu
-gpgpu_n_sub_partition_per_mchannel                    2 # number of memory subpartition in each memory module
-gpgpu_n_mem_per_ctrlr                    1 # number of memory chips per memory controller
-gpgpu_memlatency_stat                   14 # track and display latency statistics 0x2 enables MC, 0x4 enables queue logs
-gpgpu_frfcfs_dram_sched_queue_size                   64 # 0 = unlimited (default); # entries per chip
-gpgpu_dram_return_queue_size                  116 # 0 = unlimited (default); # entries per chip
-gpgpu_dram_buswidth                    4 # default = 4 bytes (8 bytes per cycle at DDR)
-gpgpu_dram_burst_length                    8 # Burst length of each DRAM request (default = 4 data bus cycle)
-dram_data_command_freq_ratio                    4 # Frequency ratio between DRAM data bus and command bus (default = 2 times, i.e. DDR)
-gpgpu_dram_timing_opt nbk=16:CCD=2:RRD=6:RCD=12:RAS=28:RP=12:RC=40: CL=12:WL=4:CDLR=5:WR=12:nbkgrp=1:CCDL=0:RTPL=0 # DRAM timing parameters = {nbk:tCCD:tRRD:tRCD:tRAS:tRP:tRC:CL:WL:tCDLR:tWR:nbkgrp:tCCDL:tRTPL}
-rop_latency                          120 # ROP queue latency (default 85)
-dram_latency                         100 # DRAM latency (default 30)
-gpgpu_mem_addr_mapping dramid@8;00000000.00000000.00000000.00000000.0000RRRR.RRRRRRRR.RBBBCCCC.BCCSSSSS # mapping memory address to dram model {dramid@<start bit>;<memory address map>}
-gpgpu_mem_addr_test                    0 # run sweep test to check address mapping for aliased address
-gpgpu_mem_address_mask                    1 # 0 = old addressing mask, 1 = new addressing mask, 2 = new add. mask + flipped bank sel and chip sel bits
-gpuwattch_xml_file  gpuwattch_geforcegtx1080ti.xml # GPUWattch XML file
-power_simulation_enabled                    1 # Turn on power simulator (1=On, 0=Off)
-power_per_cycle_dump                    0 # Dump detailed power output each cycle
-power_trace_enabled                    0 # produce a file for the power trace (1=On, 0=Off)
-power_trace_zlevel                     6 # Compression level of the power trace output log (0=no comp, 9=highest)
-steady_power_levels_enabled                    0 # produce a file for the steady power levels (1=On, 0=Off)
-steady_state_definition                  8:4 # allowed deviation:number of samples
-gpgpu_max_cycle                        0 # terminates gpu simulation early (0 = no limit)
-gpgpu_max_insn                         0 # terminates gpu simulation early (0 = no limit)
-gpgpu_max_cta                          0 # terminates gpu simulation early (0 = no limit)
-gpgpu_runtime_stat                   500 # display runtime statistics such as dram utilization {<freq>:<flag>}
-liveness_message_freq                    1 # Minimum number of seconds between simulation liveness messages (0 = always print)
-gpgpu_flush_l1_cache                    0 # Flush L1 cache at the end of each kernel call
-gpgpu_flush_l2_cache                    0 # Flush L2 cache at the end of each kernel call
-gpgpu_deadlock_detect                    0 # Stop the simulation at deadlock (1=on (default), 0=off)
-gpgpu_ptx_instruction_classification                    0 # if enabled will classify ptx instruction types per kernel (Max 255 kernels now)
-gpgpu_ptx_sim_mode                     0 # Select between Performance (default) or Functional simulation (1)
-gpgpu_clock_domains 1481.0:2962.0:1481.0:2750.0 # Clock Domain Frequencies in MhZ {<Core Clock>:<ICNT Clock>:<L2 Clock>:<DRAM Clock>}
-gpgpu_max_concurrent_kernel                    8 # maximum kernels that can run concurrently on GPU
-gpgpu_cflog_interval                    0 # Interval between each snapshot in control flow logger
-visualizer_enabled                     0 # Turn on visualizer output (1=On, 0=Off)
-visualizer_outputfile                 NULL # Specifies the output log file for visualizer
-visualizer_zlevel                      6 # Compression level of the visualizer output log (0=no comp, 9=highest)
-trace_enabled                          0 # Turn on traces
-trace_components                    none # comma seperated list of traces to enable. Complete list found in trace_streams.tup. Default none
-trace_sampling_core                    0 # The core which is printed using CORE_DPRINTF. Default 0
-trace_sampling_memory_partition                   -1 # The memory partition which is printed using MEMPART_DPRINTF. Default -1 (i.e. all)
-gddr_size                       3.6364MB # Size of GDDR in MB/GB.(GLOBAL_HEAP_START, GLOBAL_HEAP_START + gddr_size) would be used for unmanged memory, (GLOBAL_HEAP_START + gddr_size, GLOBAL_HEAP_START + gddr_size*2) would be used for managed memory. 
-page_table_walk_latency                  100 # Average page table walk latency (in core cycle).
-eviction_policy                        2 # Select page eviction policy
-reserve_accessed_page_percent                    0 # Percentage of accessed pages reserved from eviction in hope that they will be accessed in next iteration.
-percentage_of_free_page_buffer                    0 # Percentage of free page buffer to trigger the page eviction.
-page_size                            4KB # GDDR page size, only 4KB/2MB avaliable.
-pcie_bandwidth                  16.0GB/s # PCI-e bandwidth per direction, in GB/s.
-enable_nvlink                          0 # Enable nvlink 2.0, 150.0GB/s
-enable_rdma                            0 # Enable remote direct memory access
-migrate_threshold                     10 # Access counter threshold for migrating the page from cpu to gpu
-sim_prof_enable                        1 # Enable gpgpu-sim profiler
-hardware_prefetch                      1 # Select gpgpu-sim hardware prefetcher
-hwprefetch_oversub                     2 # Select gpgpu-sim hardware prefetcher under over-subscription
-page_fault_latency                 66645 # Average fault latency (in core cycle).
-enable_accurate_simulation                    0 # Enable page fault functional simulation.
-enable_ptx_file_line_stats                    1 # Turn on PTX source line statistic profiling. (1 = On)
-ptx_line_stats_filename gpgpu_inst_stats.txt # Output file for PTX source line statistics.
-gpgpu_kernel_launch_latency               222150 # Kernel launch latency in cycles. Default: 0
-gpgpu_cdp_enabled                      0 # Turn on CDP
-save_embedded_ptx                      0 # saves ptx files embedded in binary as <n>.ptx
-keep                                   0 # keep intermediate files created by GPGPU-Sim when interfacing with external programs
-gpgpu_ptx_save_converted_ptxplus                    0 # Saved converted ptxplus to a file
-ptx_opcode_latency_int         4,13,4,5,145 # Opcode latencies for integers <ADD,MAX,MUL,MAD,DIV>Default 1,1,19,25,145
-ptx_opcode_latency_fp          4,13,4,5,39 # Opcode latencies for single precision floating points <ADD,MAX,MUL,MAD,DIV>Default 1,1,1,1,30
-ptx_opcode_latency_dp         8,19,8,8,330 # Opcode latencies for double precision floating points <ADD,MAX,MUL,MAD,DIV>Default 8,8,8,8,335
-ptx_opcode_initiation_int            1,2,2,2,8 # Opcode initiation intervals for integers <ADD,MAX,MUL,MAD,DIV>Default 1,1,4,4,32
-ptx_opcode_initiation_fp            1,2,1,1,4 # Opcode initiation intervals for single precision floating points <ADD,MAX,MUL,MAD,DIV>Default 1,1,1,1,5
-ptx_opcode_initiation_dp          1,2,1,1,130 # Opcode initiation intervals for double precision floating points <ADD,MAX,MUL,MAD,DIV>Default 8,8,8,8,130
-cdp_latency         7200,8000,100,12000,1600 # CDP API latency <cudaStreamCreateWithFlags, cudaGetParameterBufferV2_init_perWarp, cudaGetParameterBufferV2_perKernel, cudaLaunchDeviceV2_init_perWarp, cudaLaunchDevicV2_perKernel>Default 7200,8000,100,12000,1600
DRAM Timing Options:
nbk                                    16 # number of banks
CCD                                     2 # column to column delay
RRD                                     6 # minimal delay between activation of rows in different banks
RCD                                    12 # row to column delay
RAS                                    28 # time needed to activate row
RP                                     12 # time needed to precharge (deactivate) row
RC                                     40 # row cycle time
CDLR                                    5 # switching from write to read (changes tWTR)
WR                                     12 # last data-in to row precharge
CL                                     12 # CAS latency
WL                                      4 # Write latency
nbkgrp                                  1 # number of bank groups
CCDL                                    0 # column to column delay between accesses to different bank groups
RTPL                                    0 # read to precharge delay between accesses to different bank groups
Total number of memory sub partition = 22
addr_dec_mask[CHIP]  = 0000000000000000 	high:64 low:0
addr_dec_mask[BK]    = 0000000000007080 	high:15 low:7
addr_dec_mask[ROW]   = 000000000fff8000 	high:28 low:15
addr_dec_mask[COL]   = 0000000000000f7f 	high:12 low:0
addr_dec_mask[BURST] = 000000000000001f 	high:5 low:0
sub_partition_id_mask = 0000000000000080
GPGPU-Sim uArch: clock freqs: 1481000000.000000:2962000000.000000:1481000000.000000:2750000000.000000
GPGPU-Sim uArch: clock periods: 0.00000000067521944632:0.00000000033760972316:0.00000000067521944632:0.00000000036363636364
*** Initializing Memory Statistics ***
GPGPU-Sim uArch: interconnect node map (shaderID+MemID to icntID)
GPGPU-Sim uArch: Memory nodes ID start from index: 28
GPGPU-Sim uArch:    0   1   2   3   4   5   6
GPGPU-Sim uArch:    7   8   9  10  11  12  13
GPGPU-Sim uArch:   14  15  16  17  18  19  20
GPGPU-Sim uArch:   21  22  23  24  25  26  27
GPGPU-Sim uArch:   28  29  30  31  32  33  34
GPGPU-Sim uArch:   35  36  37  38  39  40  41
GPGPU-Sim uArch:   42  43  44  45  46  47  48
GPGPU-Sim uArch:   49
GPGPU-Sim uArch: interconnect node reverse map (icntID to shaderID+MemID)
GPGPU-Sim uArch: Memory nodes start from ID: 28
GPGPU-Sim uArch:    0   1   2   3   4   5   6
GPGPU-Sim uArch:    7   8   9  10  11  12  13
GPGPU-Sim uArch:   14  15  16  17  18  19  20
GPGPU-Sim uArch:   21  22  23  24  25  26  27
GPGPU-Sim uArch:   28  29  30  31  32  33  34
GPGPU-Sim uArch:   35  36  37  38  39  40  41
GPGPU-Sim uArch:   42  43  44  45  46  47  48
GPGPU-Sim uArch:   49
209a860a3d0e3fd999906efcd22da6df  /home/gpuser/Desktop/gpgpu-sim_UVMSmart/benchmarks/Managed/stencil/main
GPGPU-Sim uArch: performance model initialization complete.
GPGPU-Sim PTX: __cudaRegisterFatBinary, fat_cubin_handle = 1, filename=default
self exe links to: /home/gpuser/Desktop/gpgpu-sim_UVMSmart/benchmarks/Managed/stencil/main
Running md5sum using "md5sum /home/gpuser/Desktop/gpgpu-sim_UVMSmart/benchmarks/Managed/stencil/main "
Parsing file _cuobjdump_complete_output_ISUYoc
######### cuobjdump parser ########
## Adding new section ELF
Adding arch: sm_20
Adding identifier: default
## Adding new section ELF
Adding arch: sm_20
Adding identifier: default
## Adding new section PTX
Adding ptx filename: _cuobjdump_1.ptx
Adding arch: sm_20
Adding identifier: default
## Adding new section ELF
Adding arch: sm_20
Adding identifier: default
## Adding new section PTX
Adding ptx filename: _cuobjdump_2.ptx
Adding arch: sm_20
Adding identifier: default
Done parsing!!!
GPGPU-Sim PTX: __cudaRegisterFatBinary, fat_cubin_handle = 2, filename=default
GPGPU-Sim PTX: __cudaRegisterFunction _Z24block2D_hybrid_coarsen_xffPfS_iii : hostFun 0x0x401496, fat_cubin_handle = 2
GPGPU-Sim PTX: allocating shared region for "sh_A0" from 0x0 to 0x0 (shared memory space)
GPGPU-Sim PTX: instruction assembly for function '_Z24block2D_hybrid_coarsen_xffPfS_iii'...   done.
GPGPU-Sim PTX: finding reconvergence points for '_Z24block2D_hybrid_coarsen_xffPfS_iii'...
GPGPU-Sim PTX: Finding dominators for '_Z24block2D_hybrid_coarsen_xffPfS_iii'...
GPGPU-Sim PTX: Finding immediate dominators for '_Z24block2D_hybrid_coarsen_xffPfS_iii'...
GPGPU-Sim PTX: Finding postdominators for '_Z24block2D_hybrid_coarsen_xffPfS_iii'...
GPGPU-Sim PTX: Finding immediate postdominators for '_Z24block2D_hybrid_coarsen_xffPfS_iii'...
GPGPU-Sim PTX: pre-decoding instructions for '_Z24block2D_hybrid_coarsen_xffPfS_iii'...
GPGPU-Sim PTX: reconvergence points for _Z24block2D_hybrid_coarsen_xffPfS_iii...
GPGPU-Sim PTX:  1 (potential) branch divergence @  PC=0x170 (_2.ptx:82) @!%p13 bra BB0_2;
GPGPU-Sim PTX:    immediate post dominator      @  PC=0x200 (_2.ptx:104) mov.f32 %f64, %f69;
GPGPU-Sim PTX:  2 (potential) branch divergence @  PC=0x178 (_2.ptx:83) bra.uni BB0_1;
GPGPU-Sim PTX:    immediate post dominator      @  PC=0x180 (_2.ptx:86) mad.lo.s32 %r33, %r3, %r6, %r1;
GPGPU-Sim PTX:  3 (potential) branch divergence @  PC=0x228 (_2.ptx:109) @!%p16 bra BB0_4;
GPGPU-Sim PTX:    immediate post dominator      @  PC=0x2b0 (_2.ptx:130) mov.f32 %f67, %f68;
GPGPU-Sim PTX:  4 (potential) branch divergence @  PC=0x230 (_2.ptx:110) bra.uni BB0_3;
GPGPU-Sim PTX:    immediate post dominator      @  PC=0x238 (_2.ptx:113) mad.lo.s32 %r58, %r3, %r6, %r2;
GPGPU-Sim PTX:  5 (potential) branch divergence @  PC=0x2d0 (_2.ptx:134) @%p17 bra BB0_33;
GPGPU-Sim PTX:    immediate post dominator      @  PC=0x868 (_2.ptx:370) ret;
GPGPU-Sim PTX:  6 (potential) branch divergence @  PC=0x300 (_2.ptx:143) @!%p13 bra BB0_8;
GPGPU-Sim PTX:    immediate post dominator      @  PC=0x348 (_2.ptx:156) @!%p5 bra BB0_19;
GPGPU-Sim PTX:  7 (potential) branch divergence @  PC=0x308 (_2.ptx:144) bra.uni BB0_7;
GPGPU-Sim PTX:    immediate post dominator      @  PC=0x310 (_2.ptx:147) add.s32 %r75, %r273, 1;
GPGPU-Sim PTX:  8 (potential) branch divergence @  PC=0x348 (_2.ptx:156) @!%p5 bra BB0_19;
GPGPU-Sim PTX:    immediate post dominator      @  PC=0x590 (_2.ptx:251) @!%p16 bra BB0_21;
GPGPU-Sim PTX:  9 (potential) branch divergence @  PC=0x350 (_2.ptx:157) bra.uni BB0_9;
GPGPU-Sim PTX:    immediate post dominator      @  PC=0x358 (_2.ptx:160) add.s32 %r89, %r13, -1;
GPGPU-Sim PTX: 10 (potential) branch divergence @  PC=0x368 (_2.ptx:162) @%p21 bra BB0_11;
GPGPU-Sim PTX:    immediate post dominator      @  PC=0x3e8 (_2.ptx:184) setp.eq.s32%p22, %r15, 0;
GPGPU-Sim PTX: 11 (potential) branch divergence @  PC=0x370 (_2.ptx:163) bra.uni BB0_10;
GPGPU-Sim PTX:    immediate post dominator      @  PC=0x3b8 (_2.ptx:176) shl.b32 %r92, %r11, 1;
GPGPU-Sim PTX: 12 (potential) branch divergence @  PC=0x3b0 (_2.ptx:173) bra.uni BB0_12;
GPGPU-Sim PTX:    immediate post dominator      @  PC=0x3e8 (_2.ptx:184) setp.eq.s32%p22, %r15, 0;
GPGPU-Sim PTX: 13 (potential) branch divergence @  PC=0x3f0 (_2.ptx:185) @%p22 bra BB0_14;
GPGPU-Sim PTX:    immediate post dominator      @  PC=0x470 (_2.ptx:207) setp.eq.s32%p23, %r12, 0;
GPGPU-Sim PTX: 14 (potential) branch divergence @  PC=0x3f8 (_2.ptx:186) bra.uni BB0_13;
GPGPU-Sim PTX:    immediate post dominator      @  PC=0x440 (_2.ptx:199) shl.b32 %r111, %r11, 1;
GPGPU-Sim PTX: 15 (potential) branch divergence @  PC=0x438 (_2.ptx:196) bra.uni BB0_15;
GPGPU-Sim PTX:    immediate post dominator      @  PC=0x470 (_2.ptx:207) setp.eq.s32%p23, %r12, 0;
GPGPU-Sim PTX: 16 (potential) branch divergence @  PC=0x478 (_2.ptx:208) @%p23 bra BB0_17;
GPGPU-Sim PTX:    immediate post dominator      @  PC=0x4f0 (_2.ptx:229) mad.lo.s32 %r149, %r273, %r7, %r3;
GPGPU-Sim PTX: 17 (potential) branch divergence @  PC=0x480 (_2.ptx:209) bra.uni BB0_16;
GPGPU-Sim PTX:    immediate post dominator      @  PC=0x4c8 (_2.ptx:222) shl.b32 %r129, %r11, 1;
GPGPU-Sim PTX: 18 (potential) branch divergence @  PC=0x4c0 (_2.ptx:219) bra.uni BB0_18;
GPGPU-Sim PTX:    immediate post dominator      @  PC=0x4f0 (_2.ptx:229) mad.lo.s32 %r149, %r273, %r7, %r3;
GPGPU-Sim PTX: 19 (potential) branch divergence @  PC=0x590 (_2.ptx:251) @!%p16 bra BB0_21;
GPGPU-Sim PTX:    immediate post dominator      @  PC=0x5d8 (_2.ptx:264) @!%p4 bra BB0_32;
GPGPU-Sim PTX: 20 (potential) branch divergence @  PC=0x598 (_2.ptx:252) bra.uni BB0_20;
GPGPU-Sim PTX:    immediate post dominator      @  PC=0x5a0 (_2.ptx:255) add.s32 %r168, %r273, 1;
GPGPU-Sim PTX: 21 (potential) branch divergence @  PC=0x5d8 (_2.ptx:264) @!%p4 bra BB0_32;
GPGPU-Sim PTX:    immediate post dominator      @  PC=0x820 (_2.ptx:359) bar.sync 0;
GPGPU-Sim PTX: 22 (potential) branch divergence @  PC=0x5e0 (_2.ptx:265) bra.uni BB0_22;
GPGPU-Sim PTX:    immediate post dominator      @  PC=0x5e8 (_2.ptx:268) add.s32 %r183, %r13, -1;
GPGPU-Sim PTX: 23 (potential) branch divergence @  PC=0x5f8 (_2.ptx:270) @%p27 bra BB0_24;
GPGPU-Sim PTX:    immediate post dominator      @  PC=0x678 (_2.ptx:292) setp.eq.s32%p28, %r15, 0;
GPGPU-Sim PTX: 24 (potential) branch divergence @  PC=0x600 (_2.ptx:271) bra.uni BB0_23;
GPGPU-Sim PTX:    immediate post dominator      @  PC=0x648 (_2.ptx:284) shl.b32 %r186, %r11, 1;
GPGPU-Sim PTX: 25 (potential) branch divergence @  PC=0x640 (_2.ptx:281) bra.uni BB0_25;
GPGPU-Sim PTX:    immediate post dominator      @  PC=0x678 (_2.ptx:292) setp.eq.s32%p28, %r15, 0;
GPGPU-Sim PTX: 26 (potential) branch divergence @  PC=0x680 (_2.ptx:293) @%p28 bra BB0_27;
GPGPU-Sim PTX:    immediate post dominator      @  PC=0x700 (_2.ptx:315) shl.b32 %r228, %r11, 1;
GPGPU-Sim PTX: 27 (potential) branch divergence @  PC=0x688 (_2.ptx:294) bra.uni BB0_26;
GPGPU-Sim PTX:    immediate post dominator      @  PC=0x6d0 (_2.ptx:307) shl.b32 %r207, %r11, 1;
GPGPU-Sim PTX: 28 (potential) branch divergence @  PC=0x6c8 (_2.ptx:304) bra.uni BB0_28;
GPGPU-Sim PTX:    immediate post dominator      @  PC=0x700 (_2.ptx:315) shl.b32 %r228, %r11, 1;
GPGPU-Sim PTX: 29 (potential) branch divergence @  PC=0x718 (_2.ptx:318) @%p29 bra BB0_30;
GPGPU-Sim PTX:    immediate post dominator      @  PC=0x788 (_2.ptx:338) mad.lo.s32 %r253, %r273, %r7, %r3;
GPGPU-Sim PTX: 30 (potential) branch divergence @  PC=0x720 (_2.ptx:319) bra.uni BB0_29;
GPGPU-Sim PTX:    immediate post dominator      @  PC=0x768 (_2.ptx:332) mad.lo.s32 %r235, %r228, %r15, %r19;
GPGPU-Sim PTX: 31 (potential) branch divergence @  PC=0x760 (_2.ptx:329) bra.uni BB0_31;
GPGPU-Sim PTX:    immediate post dominator      @  PC=0x788 (_2.ptx:338) mad.lo.s32 %r253, %r273, %r7, %r3;
GPGPU-Sim PTX: 32 (potential) branch divergence @  PC=0x860 (_2.ptx:367) @%p30 bra BB0_6;
GPGPU-Sim PTX:    immediate post dominator      @  PC=0x868 (_2.ptx:370) ret;
GPGPU-Sim PTX: ... end of reconvergence points for _Z24block2D_hybrid_coarsen_xffPfS_iii
GPGPU-Sim PTX: ... done pre-decoding instructions for '_Z24block2D_hybrid_coarsen_xffPfS_iii'.
GPGPU-Sim PTX: finished parsing EMBEDDED .ptx file _2.ptx
Adding _cuobjdump_1.ptx with cubin handle 2
GPGPU-Sim PTX: extracting embedded .ptx to temporary file "_ptx_zxcgA8"
Running: cat _ptx_zxcgA8 | sed 's/.version 1.5/.version 1.4/' | sed 's/, texmode_independent//' | sed 's/\(\.extern \.const\[1\] .b8 \w\+\)\[\]/\1\[1\]/' | sed 's/const\[.\]/const\[0\]/g' > _ptx2_TBnAL4
GPGPU-Sim PTX: generating ptxinfo using "$CUDA_INSTALL_PATH/bin/ptxas --gpu-name=sm_20 -v _ptx2_TBnAL4 --output-file  /dev/null 2> _ptx_zxcgA8info"
GPGPU-Sim PTX: Kernel '_Z24block2D_hybrid_coarsen_xffPfS_iii' : regs=20, lmem=0, smem=0, cmem=68
GPGPU-Sim PTX: removing ptxinfo using "rm -f _ptx_zxcgA8 _ptx2_TBnAL4 _ptx_zxcgA8info"
GPGPU-Sim PTX: loading globals with explicit initializers... 
GPGPU-Sim PTX: finished loading globals (0 bytes total).
GPGPU-Sim PTX: loading constants with explicit initializers...  done.
CUDA accelerated 7 points stencil codes****
Original version by Li-Wen Chang <lchang20@illinois.edu> and I-Jui Sung<sung10@illinois.edu>
This version maintained by Chris Rodrigues  ***********

GPGPU-Sim PTX: cudaLaunch for 0x0x401496 (mode=performance simulation) on stream 0
GPGPU-Sim PTX: pushing kernel '_Z24block2D_hybrid_coarsen_xffPfS_iii' to stream 0, gridDim= (2,32,1) blockDim = (32,4,1) 
GPGPU-Sim uArch: Shader 1 bind to kernel 1 '_Z24block2D_hybrid_coarsen_xffPfS_iii'
GPGPU-Sim uArch: CTA/core = 16, limited by: threads
GPGPU-Sim uArch: Shader 2 bind to kernel 1 '_Z24block2D_hybrid_coarsen_xffPfS_iii'
GPGPU-Sim uArch: Shader 3 bind to kernel 1 '_Z24block2D_hybrid_coarsen_xffPfS_iii'
GPGPU-Sim uArch: Shader 4 bind to kernel 1 '_Z24block2D_hybrid_coarsen_xffPfS_iii'
GPGPU-Sim uArch: Shader 5 bind to kernel 1 '_Z24block2D_hybrid_coarsen_xffPfS_iii'
GPGPU-Sim uArch: Shader 6 bind to kernel 1 '_Z24block2D_hybrid_coarsen_xffPfS_iii'
GPGPU-Sim uArch: Shader 7 bind to kernel 1 '_Z24block2D_hybrid_coarsen_xffPfS_iii'
GPGPU-Sim uArch: Shader 8 bind to kernel 1 '_Z24block2D_hybrid_coarsen_xffPfS_iii'
GPGPU-Sim uArch: Shader 9 bind to kernel 1 '_Z24block2D_hybrid_coarsen_xffPfS_iii'
GPGPU-Sim uArch: Shader 10 bind to kernel 1 '_Z24block2D_hybrid_coarsen_xffPfS_iii'
GPGPU-Sim uArch: Shader 11 bind to kernel 1 '_Z24block2D_hybrid_coarsen_xffPfS_iii'
GPGPU-Sim uArch: Shader 12 bind to kernel 1 '_Z24block2D_hybrid_coarsen_xffPfS_iii'
GPGPU-Sim uArch: Shader 13 bind to kernel 1 '_Z24block2D_hybrid_coarsen_xffPfS_iii'
GPGPU-Sim uArch: Shader 14 bind to kernel 1 '_Z24block2D_hybrid_coarsen_xffPfS_iii'
GPGPU-Sim uArch: Shader 15 bind to kernel 1 '_Z24block2D_hybrid_coarsen_xffPfS_iii'
GPGPU-Sim uArch: Shader 16 bind to kernel 1 '_Z24block2D_hybrid_coarsen_xffPfS_iii'
GPGPU-Sim uArch: Shader 17 bind to kernel 1 '_Z24block2D_hybrid_coarsen_xffPfS_iii'
GPGPU-Sim uArch: Shader 18 bind to kernel 1 '_Z24block2D_hybrid_coarsen_xffPfS_iii'
GPGPU-Sim uArch: Shader 19 bind to kernel 1 '_Z24block2D_hybrid_coarsen_xffPfS_iii'
GPGPU-Sim uArch: Shader 20 bind to kernel 1 '_Z24block2D_hybrid_coarsen_xffPfS_iii'
GPGPU-Sim uArch: Shader 21 bind to kernel 1 '_Z24block2D_hybrid_coarsen_xffPfS_iii'
GPGPU-Sim uArch: Shader 22 bind to kernel 1 '_Z24block2D_hybrid_coarsen_xffPfS_iii'
GPGPU-Sim uArch: Shader 23 bind to kernel 1 '_Z24block2D_hybrid_coarsen_xffPfS_iii'
GPGPU-Sim uArch: Shader 24 bind to kernel 1 '_Z24block2D_hybrid_coarsen_xffPfS_iii'
GPGPU-Sim uArch: Shader 25 bind to kernel 1 '_Z24block2D_hybrid_coarsen_xffPfS_iii'
GPGPU-Sim uArch: Shader 26 bind to kernel 1 '_Z24block2D_hybrid_coarsen_xffPfS_iii'
GPGPU-Sim uArch: Shader 27 bind to kernel 1 '_Z24block2D_hybrid_coarsen_xffPfS_iii'
GPGPU-Sim uArch: Shader 0 bind to kernel 1 '_Z24block2D_hybrid_coarsen_xffPfS_iii'
Destroy streams for kernel 1: size 0
kernel_name = _Z24block2D_hybrid_coarsen_xffPfS_iii 
kernel_launch_uid = 1 
gpu_sim_cycle = 570329
gpu_sim_insn = 28848876
gpu_ipc =      50.5829
gpu_tot_sim_cycle = 792479
gpu_tot_sim_insn = 28848876
gpu_tot_ipc =      36.4033
gpu_tot_issued_cta = 64
max_total_param_size = 0
gpu_stall_dramfull = 94846
gpu_stall_icnt2sh    = 2168
partiton_reqs_in_parallel = 12452392
partiton_reqs_in_parallel_total    = 0
partiton_level_parallism =      21.8337
partiton_level_parallism_total  =      15.7132
partiton_reqs_in_parallel_util = 12452392
partiton_reqs_in_parallel_util_total    = 0
gpu_sim_cycle_parition_util = 569374
gpu_tot_sim_cycle_parition_util    = 0
partiton_level_parallism_util =      21.8703
partiton_level_parallism_util_total  =      21.8703
partiton_replys_in_parallel = 47008
partiton_replys_in_parallel_total    = 0
L2_BW  =       7.8123 GB/Sec
L2_BW_total  =       5.6224 GB/Sec
gpu_total_sim_rate=25283

========= Core cache stats =========
L1I_cache:
	L1I_total_cache_accesses = 579228
	L1I_total_cache_misses = 3000
	L1I_total_cache_miss_rate = 0.0052
	L1I_total_cache_pending_hits = 0
	L1I_total_cache_reservation_fails = 0
L1D_cache:
	L1D_cache_core[0]: Access = 0, Miss = 0, Miss_rate = -nan, Pending_hits = 0, Reservation_fails = 0
	L1D_cache_core[1]: Access = 0, Miss = 0, Miss_rate = -nan, Pending_hits = 0, Reservation_fails = 0
	L1D_cache_core[2]: Access = 0, Miss = 0, Miss_rate = -nan, Pending_hits = 0, Reservation_fails = 0
	L1D_cache_core[3]: Access = 0, Miss = 0, Miss_rate = -nan, Pending_hits = 0, Reservation_fails = 0
	L1D_cache_core[4]: Access = 0, Miss = 0, Miss_rate = -nan, Pending_hits = 0, Reservation_fails = 0
	L1D_cache_core[5]: Access = 0, Miss = 0, Miss_rate = -nan, Pending_hits = 0, Reservation_fails = 0
	L1D_cache_core[6]: Access = 0, Miss = 0, Miss_rate = -nan, Pending_hits = 0, Reservation_fails = 0
	L1D_cache_core[7]: Access = 0, Miss = 0, Miss_rate = -nan, Pending_hits = 0, Reservation_fails = 0
	L1D_cache_core[8]: Access = 0, Miss = 0, Miss_rate = -nan, Pending_hits = 0, Reservation_fails = 0
	L1D_cache_core[9]: Access = 0, Miss = 0, Miss_rate = -nan, Pending_hits = 0, Reservation_fails = 0
	L1D_cache_core[10]: Access = 0, Miss = 0, Miss_rate = -nan, Pending_hits = 0, Reservation_fails = 0
	L1D_cache_core[11]: Access = 0, Miss = 0, Miss_rate = -nan, Pending_hits = 0, Reservation_fails = 0
	L1D_cache_core[12]: Access = 0, Miss = 0, Miss_rate = -nan, Pending_hits = 0, Reservation_fails = 0
	L1D_cache_core[13]: Access = 0, Miss = 0, Miss_rate = -nan, Pending_hits = 0, Reservation_fails = 0
	L1D_cache_core[14]: Access = 0, Miss = 0, Miss_rate = -nan, Pending_hits = 0, Reservation_fails = 0
	L1D_cache_core[15]: Access = 0, Miss = 0, Miss_rate = -nan, Pending_hits = 0, Reservation_fails = 0
	L1D_cache_core[16]: Access = 0, Miss = 0, Miss_rate = -nan, Pending_hits = 0, Reservation_fails = 0
	L1D_cache_core[17]: Access = 0, Miss = 0, Miss_rate = -nan, Pending_hits = 0, Reservation_fails = 0
	L1D_cache_core[18]: Access = 0, Miss = 0, Miss_rate = -nan, Pending_hits = 0, Reservation_fails = 0
	L1D_cache_core[19]: Access = 0, Miss = 0, Miss_rate = -nan, Pending_hits = 0, Reservation_fails = 0
	L1D_cache_core[20]: Access = 0, Miss = 0, Miss_rate = -nan, Pending_hits = 0, Reservation_fails = 0
	L1D_cache_core[21]: Access = 0, Miss = 0, Miss_rate = -nan, Pending_hits = 0, Reservation_fails = 0
	L1D_cache_core[22]: Access = 0, Miss = 0, Miss_rate = -nan, Pending_hits = 0, Reservation_fails = 0
	L1D_cache_core[23]: Access = 0, Miss = 0, Miss_rate = -nan, Pending_hits = 0, Reservation_fails = 0
	L1D_cache_core[24]: Access = 0, Miss = 0, Miss_rate = -nan, Pending_hits = 0, Reservation_fails = 0
	L1D_cache_core[25]: Access = 0, Miss = 0, Miss_rate = -nan, Pending_hits = 0, Reservation_fails = 0
	L1D_cache_core[26]: Access = 0, Miss = 0, Miss_rate = -nan, Pending_hits = 0, Reservation_fails = 0
	L1D_cache_core[27]: Access = 0, Miss = 0, Miss_rate = -nan, Pending_hits = 0, Reservation_fails = 0
	L1D_total_cache_accesses = 0
	L1D_total_cache_misses = 0
	L1D_total_cache_pending_hits = 0
	L1D_total_cache_reservation_fails = 0
	L1D_cache_data_port_util = 0.000
	L1D_cache_fill_port_util = 0.000
L1C_cache:
	L1C_total_cache_accesses = 1792
	L1C_total_cache_misses = 1632
	L1C_total_cache_miss_rate = 0.9107
	L1C_total_cache_pending_hits = 0
	L1C_total_cache_reservation_fails = 1444
L1T_cache:
	L1T_total_cache_accesses = 0
	L1T_total_cache_misses = 0
	L1T_total_cache_pending_hits = 0
	L1T_total_cache_reservation_fails = 0

Total_core_cache_stats:
	Total_core_cache_stats_breakdown[GLOBAL_ACC_R][HIT] = 0
	Total_core_cache_stats_breakdown[GLOBAL_ACC_R][HIT_RESERVED] = 0
	Total_core_cache_stats_breakdown[GLOBAL_ACC_R][MISS] = 0
	Total_core_cache_stats_breakdown[GLOBAL_ACC_R][RESERVATION_FAIL] = 0
	Total_core_cache_stats_breakdown[LOCAL_ACC_R][HIT] = 0
	Total_core_cache_stats_breakdown[LOCAL_ACC_R][HIT_RESERVED] = 0
	Total_core_cache_stats_breakdown[LOCAL_ACC_R][MISS] = 0
	Total_core_cache_stats_breakdown[LOCAL_ACC_R][RESERVATION_FAIL] = 0
	Total_core_cache_stats_breakdown[CONST_ACC_R][HIT] = 160
	Total_core_cache_stats_breakdown[CONST_ACC_R][HIT_RESERVED] = 0
	Total_core_cache_stats_breakdown[CONST_ACC_R][MISS] = 1632
	Total_core_cache_stats_breakdown[CONST_ACC_R][RESERVATION_FAIL] = 1444
	Total_core_cache_stats_breakdown[TEXTURE_ACC_R][HIT] = 0
	Total_core_cache_stats_breakdown[TEXTURE_ACC_R][HIT_RESERVED] = 0
	Total_core_cache_stats_breakdown[TEXTURE_ACC_R][MISS] = 0
	Total_core_cache_stats_breakdown[TEXTURE_ACC_R][RESERVATION_FAIL] = 0
	Total_core_cache_stats_breakdown[GLOBAL_ACC_W][HIT] = 0
	Total_core_cache_stats_breakdown[GLOBAL_ACC_W][HIT_RESERVED] = 0
	Total_core_cache_stats_breakdown[GLOBAL_ACC_W][MISS] = 0
	Total_core_cache_stats_breakdown[GLOBAL_ACC_W][RESERVATION_FAIL] = 0
	Total_core_cache_stats_breakdown[LOCAL_ACC_W][HIT] = 0
	Total_core_cache_stats_breakdown[LOCAL_ACC_W][HIT_RESERVED] = 0
	Total_core_cache_stats_breakdown[LOCAL_ACC_W][MISS] = 0
	Total_core_cache_stats_breakdown[LOCAL_ACC_W][RESERVATION_FAIL] = 0
	Total_core_cache_stats_breakdown[L1_WRBK_ACC][HIT] = 0
	Total_core_cache_stats_breakdown[L1_WRBK_ACC][HIT_RESERVED] = 0
	Total_core_cache_stats_breakdown[L1_WRBK_ACC][MISS] = 0
	Total_core_cache_stats_breakdown[L1_WRBK_ACC][RESERVATION_FAIL] = 0
	Total_core_cache_stats_breakdown[L2_WRBK_ACC][HIT] = 0
	Total_core_cache_stats_breakdown[L2_WRBK_ACC][HIT_RESERVED] = 0
	Total_core_cache_stats_breakdown[L2_WRBK_ACC][MISS] = 0
	Total_core_cache_stats_breakdown[L2_WRBK_ACC][RESERVATION_FAIL] = 0
	Total_core_cache_stats_breakdown[INST_ACC_R][HIT] = 576228
	Total_core_cache_stats_breakdown[INST_ACC_R][HIT_RESERVED] = 0
	Total_core_cache_stats_breakdown[INST_ACC_R][MISS] = 3000
	Total_core_cache_stats_breakdown[INST_ACC_R][RESERVATION_FAIL] = 0
	Total_core_cache_stats_breakdown[L1_WR_ALLOC_R][HIT] = 0
	Total_core_cache_stats_breakdown[L1_WR_ALLOC_R][HIT_RESERVED] = 0
	Total_core_cache_stats_breakdown[L1_WR_ALLOC_R][MISS] = 0
	Total_core_cache_stats_breakdown[L1_WR_ALLOC_R][RESERVATION_FAIL] = 0
	Total_core_cache_stats_breakdown[L2_WR_ALLOC_R][HIT] = 0
	Total_core_cache_stats_breakdown[L2_WR_ALLOC_R][HIT_RESERVED] = 0
	Total_core_cache_stats_breakdown[L2_WR_ALLOC_R][MISS] = 0
	Total_core_cache_stats_breakdown[L2_WR_ALLOC_R][RESERVATION_FAIL] = 0
	Total_core_cache_stats_breakdown[CONST_ACC_R][TOTAL_ACCESS] = 1792
	Total_core_cache_stats_breakdown[INST_ACC_R][TOTAL_ACCESS] = 579228
Shader 0 warp_id issue ditsribution:
warp_id:
0, 1, 2, 3, 4, 5, 6, 7, 
distro:
4828, 4640, 4648, 4821, 4828, 4643, 4648, 4818, 
gpgpu_n_tot_thrd_icount = 33319424
gpgpu_n_tot_w_icount = 1041232
gpgpu_n_stall_shd_mem = 190600
gpgpu_n_mem_read_local = 0
gpgpu_n_mem_write_local = 0
gpgpu_n_mem_read_global = 31384
gpgpu_n_mem_write_global = 15120
gpgpu_n_mem_texture = 0
gpgpu_n_mem_const = 28
gpgpu_n_load_insn  = 766208
gpgpu_n_store_insn = 476280
gpgpu_n_shmem_insn = 3155288
gpgpu_n_tex_insn = 0
gpgpu_n_const_mem_insn = 0
gpgpu_n_param_mem_insn = 57344
gpgpu_n_shmem_bkconflict = 0
gpgpu_n_cache_bkconflict = 0
gpgpu_n_intrawarp_mshr_merge = 0
gpgpu_n_cmem_portconflict = 1444
gpgpu_stall_shd_mem[c_mem][bk_conf] = 1444
gpgpu_stall_shd_mem[c_mem][mshr_rc] = 0
gpgpu_stall_shd_mem[c_mem][icnt_rc] = 0
gpgpu_stall_shd_mem[c_mem][data_port_stall] = 0
gpgpu_stall_shd_mem[t_mem][mshr_rc] = 0
gpgpu_stall_shd_mem[t_mem][icnt_rc] = 0
gpgpu_stall_shd_mem[t_mem][data_port_stall] = 0
gpgpu_stall_shd_mem[s_mem][bk_conf] = 0
gpgpu_stall_shd_mem[gl_mem][bk_conf] = 0
gpgpu_stall_shd_mem[gl_mem][coal_stall] = 0
gpgpu_stall_shd_mem[gl_mem][data_port_stall] = 0
gpgpu_stall_shd_mem[g_mem_ld][mshr_rc] = 0
gpgpu_stall_shd_mem[g_mem_ld][icnt_rc] = 189156
gpgpu_stall_shd_mem[g_mem_ld][wb_icnt_rc] = 0
gpgpu_stall_shd_mem[g_mem_ld][wb_rsrv_fail] = 0
gpgpu_stall_shd_mem[g_mem_st][mshr_rc] = 0
gpgpu_stall_shd_mem[g_mem_st][icnt_rc] = 0
gpgpu_stall_shd_mem[g_mem_st][wb_icnt_rc] = 0
gpgpu_stall_shd_mem[g_mem_st][wb_rsrv_fail] = 0
gpgpu_stall_shd_mem[l_mem_ld][mshr_rc] = 0
gpgpu_stall_shd_mem[l_mem_ld][icnt_rc] = 0
gpgpu_stall_shd_mem[l_mem_ld][wb_icnt_rc] = 0
gpgpu_stall_shd_mem[l_mem_ld][wb_rsrv_fail] = 0
gpgpu_stall_shd_mem[l_mem_st][mshr_rc] = 0
gpgpu_stall_shd_mem[l_mem_st][icnt_rc] = 0
gpgpu_stall_shd_mem[l_mem_ld][wb_icnt_rc] = 0
gpgpu_stall_shd_mem[l_mem_ld][wb_rsrv_fail] = 0
gpu_reg_bank_conflict_stalls = 0
Warp Occupancy Distribution:
Stall:31270	W0_Idle:8597423	W0_Scoreboard:22402283	W1:60480	W2:0	W3:0	W4:0	W5:0	W6:0	W7:0	W8:0	W9:0	W10:0	W11:0	W12:0	W13:0	W14:0	W15:0	W16:0	W17:0	W18:0	W19:0	W20:0	W21:0	W22:0	W23:0	W24:0	W25:0	W26:0	W27:0	W28:0	W29:0	W30:0	W31:408180	W32:572572
traffic_breakdown_coretomem[CONST_ACC_R] = 224 {8:28,}
traffic_breakdown_coretomem[GLOBAL_ACC_R] = 251072 {8:31384,}
traffic_breakdown_coretomem[GLOBAL_ACC_W] = 2056320 {136:15120,}
traffic_breakdown_coretomem[INST_ACC_R] = 3808 {8:476,}
traffic_breakdown_memtocore[CONST_ACC_R] = 2016 {72:28,}
traffic_breakdown_memtocore[GLOBAL_ACC_R] = 3542464 {40:7560,136:23824,}
traffic_breakdown_memtocore[GLOBAL_ACC_W] = 120960 {8:15120,}
traffic_breakdown_memtocore[INST_ACC_R] = 64736 {136:476,}
maxmrqlatency = 1944 
maxdqlatency = 0 
maxmflatency = 179194 
averagemflatency = 33929 
max_icnt2mem_latency = 178940 
max_icnt2sh_latency = 792478 
mrq_lat_table:14522 	1219 	745 	1330 	1683 	2413 	3760 	6593 	10620 	3689 	68 	0 	0 	0 	0 	0 	0 	0 	0 	0 	0 	0 	0 	0 	0 	0 	0 	0 	0 	0 	0 	0 	
dq_lat_table:0 	0 	0 	0 	0 	0 	0 	0 	0 	0 	0 	0 	0 	0 	0 	0 	0 	0 	0 	0 	0 	0 	0 	0 	0 	0 	0 	0 	0 	0 	0 	0 	
mf_lat_table:0 	0 	0 	0 	0 	0 	0 	22039 	8481 	250 	0 	58 	146 	826 	1386 	5310 	262 	7774 	0 	0 	0 	0 	0 	0 	0 	0 	0 	0 	0 	0 	0 	0 	
icnt2mem_lat_table:0 	0 	22134 	129 	19 	0 	8964 	0 	0 	0 	1 	57 	146 	826 	1386 	5310 	262 	7774 	0 	0 	0 	0 	0 	0 	
icnt2sh_lat_table:0 	0 	25449 	5840 	123 	0 	0 	0 	0 	0 	0 	0 	0 	0 	0 	0 	0 	0 	7084 	8036 	0 	0 	0 	0 	
mf_lat_pw_table:0 	0 	0 	0 	0 	0 	0 	86 	9 	0 	0 	2 	3 	6 	9 	14 	1 	14 	0 	0 	0 	0 	0 	0 	0 	0 	0 	0 	0 	0 	0 	0 	
maximum concurrent accesses to same row:
dram[0]:        32        32        32        32        32        32        32        32        32        32        32        32        32        32        32        32 
dram[1]:        32        32        32        32        32        32        32        32        32        32        32        32        32        32        32        32 
dram[2]:        32        32        32        32        32        32        32        32        32        32        32        32        32        32        32        32 
dram[3]:        32        32        32        32        32        32        32        32        32        32        32        32        32        32        32        32 
dram[4]:        32        32        32        32        32        32        32        32        32        32        32        32        32        32        32        32 
dram[5]:        32        32        32        32        32        32        32        32        32        32        32        32        32        32        32        32 
dram[6]:        32        32        32        32        32        32        32        32        32        32        32        32        32        32        32        32 
dram[7]:        32        32        32        32        32        32        32        32        32        32        32        32        32        32        32        32 
dram[8]:        32        32        32        32        32        32        32        32        32        32        32        32        32        32        32        32 
dram[9]:        32        32        32        32        32        32        32        32        32        32        32        32        32        32        32        32 
dram[10]:        32        32        32        32        32        32        32        32        32        32        32        32        32        32        32        32 
maximum service time to same row:
dram[0]:    149974    149543    147321    146733    153551    152975    152683    152115    151770    151321    151710    151211    150739    150293    150055    149631 
dram[1]:    149938    149520    147375    146811    153575    152979    152660    152173    151901    151366    151688    151135    150701    150198    150064    149543 
dram[2]:    149941    149379    147340    146758    153545    152962    152677    152129    151811    151318    151666    151251    150797    150816    149950    149546 
dram[3]:    149960    149468    147381    146789    153569    152993    152666    152167    151912    151360    151670    151148    150799    150202    150103    149602 
dram[4]:    149957    149479    147340    146760    153569    153518    152728    152183    151829    151337    151637    151131    150805    150320    150028    149548 
dram[5]:    149981    149966    147325    146762    153552    152980    152645    152075    151912    151366    151721    151198    150743    150231    150216    149690 
dram[6]:    149822    149348    147338    146755    153548    152985    152533    152012    151875    151417    151687    151204    150833    150390    149963    149609 
dram[7]:    149966    149540    147329    146752    153558    152999    152665    152339    151788    151327    151795    151315    150804    150325    150120    149638 
dram[8]:    149783    149290    147379    146817    153549    152966    152416    151951    151851    151319    151649    151097    150880    150348    150089    149633 
dram[9]:    149937    149535    147329    146745    153569    153002    152687    152207    151860    151366    151815    151243    150827    150360    150216    149704 
dram[10]:    149288    148738    147377    146815    153560    152991    152488    151966    151913    151381    151678    151685    150846    150261    150136    149592 
average row accesses per activate:
dram[0]: 23.363636 23.272728 20.500000 20.500000 21.818182 21.818182 17.062500 17.062500 23.500000 23.500000 20.571428 20.571428 17.375000 17.375000 21.416666 21.416666 
dram[1]: 23.272728 23.272728 20.500000 20.500000 21.272728 21.272728 23.250000 23.250000 18.799999 20.142857 20.571428 20.571428 17.375000 17.375000 21.416666 23.272728 
dram[2]: 22.909090 22.909090 21.000000 21.000000 21.272728 21.272728 19.928572 23.250000 17.625000 21.692308 19.200001 19.200001 17.375000 17.375000 23.272728 23.272728 
dram[3]: 22.909090 22.909090 21.000000 21.000000 21.272728 21.272728 23.250000 23.250000 20.142857 18.799999 16.941177 19.200001 19.714285 19.714285 23.272728 23.272728 
dram[4]: 22.909090 22.909090 21.000000 21.000000 21.272728 21.272728 19.500000 19.500000 20.571428 20.571428 20.571428 20.571428 17.250000 17.250000 21.416666 21.416666 
dram[5]: 19.384615 19.384615 20.666666 20.666666 21.818182 21.818182 22.750000 22.750000 20.571428 20.571428 19.200001 16.941177 18.400000 19.714285 21.416666 21.416666 
dram[6]: 23.272728 23.272728 17.714285 20.666666 21.818182 21.818182 22.750000 22.750000 20.571428 20.571428 22.153847 22.153847 17.250000 17.250000 20.916666 20.916666 
dram[7]: 19.692308 23.272728 20.583334 20.583334 21.818182 21.818182 22.750000 22.750000 20.571428 18.000000 20.142857 14.842105 16.588236 15.666667 20.916666 20.916666 
dram[8]: 23.272728 23.272728 20.583334 20.583334 21.818182 21.818182 22.916666 22.916666 20.571428 20.571428 18.799999 18.799999 16.588236 17.625000 20.916666 20.916666 
dram[9]: 19.230770 22.727272 20.916666 20.916666 21.818182 21.818182 19.642857 19.642857 22.153847 24.000000 18.799999 18.799999 15.666667 17.625000 20.916666 20.916666 
dram[10]: 22.727272 22.727272 20.916666 20.916666 21.818182 21.818182 23.000000 23.000000 19.200001 19.200001 17.625000 16.588236 15.333333 17.250000 21.416666 21.416666 
average row locality = 46642/2290 = 20.367685
number of total memory accesses made:
dram[0]:         0         0         0         0         0         0         0         0         0         0         0         0         0         0         0         0 
dram[1]:         0         0         0         0         0         0         0         0         0         0         0         0         0         0         0         0 
dram[2]:         0         0         0         0         0         0         0         0         0         0         0         0         0         0         0         0 
dram[3]:         0         0         0         0         0         0         0         0         0         0         0         0         0         0         0         0 
dram[4]:         0         0         0         0         0         0         0         0         0         0         0         0         0         0         0         0 
dram[5]:         0         0         0         0         0         0         0         0         0         0         0         0         0         0         0         0 
dram[6]:         0         0         0         0         0         0         0         0         0         0         0         0         0         0         0         0 
dram[7]:         0         0         0         0         0         0         0         0         0         0         0         0         0         0         0         0 
dram[8]:         0         0         0         0         0         0         0         0         0         0         0         0         0         0         0         0 
dram[9]:         0         0         0         0         0         0         0         0         0         0         0         0         0         0         0         0 
dram[10]:         0         0         0         0         0         0         0         0         0         0         0         0         0         0         0         0 
total accesses: 0
min_bank_accesses = 0!
min_chip_accesses = 0!
number of total read accesses:
dram[0]:       177       176       169       169       160       160       183       183       189       189       192       192       187       187       177       177 
dram[1]:       176       176       169       169       157       157       186       186       189       189       192       192       187       187       177       176 
dram[2]:       174       174       172       172       157       157       186       186       189       189       192       192       187       187       176       176 
dram[3]:       174       174       172       172       157       157       186       186       189       189       192       192       186       186       176       176 
dram[4]:       174       174       172       172       157       157       183       183       192       192       192       192       186       186       177       177 
dram[5]:       174       174       170       170       160       160       183       183       192       192       192       192       186       186       177       177 
dram[6]:       176       176       170       170       160       160       183       183       192       192       192       192       186       186       174       174 
dram[7]:       176       176       169       169       160       160       183       183       192       192       189       189       189       189       174       174 
dram[8]:       176       176       169       169       160       160       184       184       192       192       189       189       189       189       174       174 
dram[9]:       173       173       171       171       160       160       184       184       192       192       189       189       189       189       174       174 
dram[10]:       173       173       171       171       160       160       185       185       192       192       189       189       186       186       177       177 
total reads: 31522
bank skew: 192/157 = 1.22
chip skew: 2868/2864 = 1.00
number of total write accesses:
dram[0]:        80        80        77        77        80        80        90        90        93        93        96        96        91        91        80        80 
dram[1]:        80        80        77        77        77        77        93        93        93        93        96        96        91        91        80        80 
dram[2]:        78        78        80        80        77        77        93        93        93        93        96        96        91        91        80        80 
dram[3]:        78        78        80        80        77        77        93        93        93        93        96        96        90        90        80        80 
dram[4]:        78        78        80        80        77        77        90        90        96        96        96        96        90        90        80        80 
dram[5]:        78        78        78        78        80        80        90        90        96        96        96        96        90        90        80        80 
dram[6]:        80        80        78        78        80        80        90        90        96        96        96        96        90        90        77        77 
dram[7]:        80        80        78        78        80        80        90        90        96        96        93        93        93        93        77        77 
dram[8]:        80        80        78        78        80        80        91        91        96        96        93        93        93        93        77        77 
dram[9]:        77        77        80        80        80        80        91        91        96        96        93        93        93        93        77        77 
dram[10]:        77        77        80        80        80        80        91        91        96        96        93        93        90        90        80        80 
total reads: 15120
bank skew: 96/77 = 1.25
chip skew: 1376/1374 = 1.00
average mf latency per bank:
dram[0]:      29427     26934     39623     36413     46740     39244     44520     33831     31034     30191     33589     32376     34614     32824     35420     27551
dram[1]:      29503     26933     39603     36396     46333     38902     44470     33979     31027     30188     33592     32384     34814     33027     35409     27641
dram[2]:      29075     26911     39546     36310     46318     38886     44443     33967     31050     30192     33588     32379     34798     33015     35661     27748
dram[3]:      29080     26910     39528     36311     46490     39062     44456     33970     31051     30187     33780     32582     35039     33044     35663     27755
dram[4]:      28876     26702     39542     36323     46492     39050     44060     34004     31220     30363     33827     32579     35125     33023     35525     27647
dram[5]:      28872     26693     40151     36633     46909     39264     44072     34010     31216     30361     33829     32574     35094     33074     35537     27662
dram[6]:      29319     26955     40125     36628     46881     39266     43874     33835     31212     30367     33821     32599     35452     33052     35451     27459
dram[7]:      29303     26935     40186     36774     46906     39280     43851     33806     31210     30360     33413     32143     35610     33255     35377     27449
dram[8]:      29316     26949     40173     36766     47739     39237     43917     33505     31213     30359     33401     32145     35391     33232     35384     27449
dram[9]:      28924     26748     40430     37078     47775     39258     43867     33436     31218     30375     33417     32155     35386     33233     35385     27447
dram[10]:      28931     26731     40429     37065     47237     39233     43758     33353     31216     30361     33405     32141     34705     32501     35252     27440
maximum mf latency per bank:
dram[0]:     161847    161476    164504    164113    179182    164054    179148    163444    163218    162963    163377    162932    162199    161831    161818    161612
dram[1]:     161809    161470    164500    164124    179164    164195    179151    163392    163022    162725    163140    162736    162298    162092    161655    161460
dram[2]:     161762    161412    164525    164155    179194    163941    179151    163375    163161    162873    163428    163186    162243    161868    161611    161351
dram[3]:     161741    161129    164486    164102    179161    164247    179151    163334    163200    162807    163063    162590    162560    161974    161641    161229
dram[4]:     161743    161382    164520    164128    179184    163827    179145    177624    163239    162879    163359    162955    162306    161825    161698    161348
dram[5]:     161675    161110    164516    164190    179157    164169    179152    178523    163200    162866    162932    162558    162564    162189    161946    161567
dram[6]:     161989    161767    164568    164155    179182    163891    178953    163582    163192    162899    163326    162972    162176    162122    161628    161376
dram[7]:     161650    161323    164486    164096    179150    164166    179162    163243    163048    162773    163368    162999    162504    162126    161805    161418
dram[8]:     161950    161683    164632    164235    179157    163884    178953    163613    163075    162580    163162    162551    162671    162292    161980    161586
dram[9]:     161563    161261    164565    164133    179153    164240    179147    163454    163247    163012    163450    162988    162473    162071    162003    161634
dram[10]:     161888    161327    164591    164228    179163    163661    178955    163521    163189    162758    163175    162573    162493    161997    161996    161536
Memory Partition 0: 
Cache L2_bank_000:
MSHR contents

Cache L2_bank_001:
MSHR contents

In Dram Latency Queue (total = 0): 
DRAM[0]: 16 bks, busW=4 BL=8 CL=12, tRRD=2 tCCD=6, tRCD=12 tRAS=28 tRP=12 tRC=40
n_cmd=1059016 n_nop=1041650 n_act=209 n_pre=193 n_req=4241 n_rd=11468 n_write=5496 bw_util=0.03204
n_activity=48662 dram_eff=0.6972
bk0: 708a 1044697i bk1: 704a 1045313i bk2: 676a 1044565i bk3: 676a 1044436i bk4: 640a 1043095i bk5: 640a 1043575i bk6: 732a 1043419i bk7: 732a 1043308i bk8: 756a 1043832i bk9: 756a 1043906i bk10: 768a 1042830i bk11: 768a 1042789i bk12: 748a 1043593i bk13: 748a 1043544i bk14: 708a 1045092i bk15: 708a 1044842i 
dram_util_bins: 0 0 0 0 0 0 0 0 0 0
dram_eff_bins: 0 0 0 0 0 0 0 0 0 0
mrqq: max=64 avg=1.28678
Memory Partition 1: 
Cache L2_bank_002:
MSHR contents

Cache L2_bank_003:
MSHR contents

In Dram Latency Queue (total = 0): 
DRAM[1]: 16 bks, busW=4 BL=8 CL=12, tRRD=2 tCCD=6, tRCD=12 tRAS=28 tRP=12 tRC=40
n_cmd=1059016 n_nop=1041668 n_act=204 n_pre=188 n_req=4239 n_rd=11460 n_write=5496 bw_util=0.03202
n_activity=48715 dram_eff=0.6961
bk0: 704a 1045541i bk1: 704a 1045267i bk2: 676a 1044643i bk3: 676a 1044432i bk4: 628a 1044585i bk5: 628a 1044781i bk6: 744a 1043025i bk7: 744a 1043188i bk8: 756a 1043551i bk9: 756a 1043483i bk10: 768a 1043379i bk11: 768a 1043566i bk12: 748a 1043482i bk13: 748a 1043625i bk14: 708a 1045671i bk15: 704a 1045721i 
dram_util_bins: 0 0 0 0 0 0 0 0 0 0
dram_eff_bins: 0 0 0 0 0 0 0 0 0 0
mrqq: max=64 avg=1.2931
Memory Partition 2: 
Cache L2_bank_004:
MSHR contents

Cache L2_bank_005:
MSHR contents

In Dram Latency Queue (total = 0): 
DRAM[2]: 16 bks, busW=4 BL=8 CL=12, tRRD=2 tCCD=6, tRCD=12 tRAS=28 tRP=12 tRC=40
n_cmd=1059016 n_nop=1041650 n_act=207 n_pre=191 n_req=4242 n_rd=11464 n_write=5504 bw_util=0.03204
n_activity=48717 dram_eff=0.6966
bk0: 696a 1045395i bk1: 696a 1045437i bk2: 688a 1043433i bk3: 688a 1043613i bk4: 628a 1044120i bk5: 628a 1043839i bk6: 744a 1043046i bk7: 744a 1042956i bk8: 756a 1043687i bk9: 756a 1043894i bk10: 768a 1042802i bk11: 768a 1042694i bk12: 748a 1043729i bk13: 748a 1043509i bk14: 704a 1045116i bk15: 704a 1045155i 
dram_util_bins: 0 0 0 0 0 0 0 0 0 0
dram_eff_bins: 0 0 0 0 0 0 0 0 0 0
mrqq: max=64 avg=1.2919
Memory Partition 3: 
Cache L2_bank_006:
MSHR contents

Cache L2_bank_007:
MSHR contents

In Dram Latency Queue (total = 0): 
DRAM[3]: 16 bks, busW=4 BL=8 CL=12, tRRD=2 tCCD=6, tRCD=12 tRAS=28 tRP=12 tRC=40
n_cmd=1059016 n_nop=1041674 n_act=203 n_pre=187 n_req=4238 n_rd=11456 n_write=5496 bw_util=0.03201
n_activity=48718 dram_eff=0.6959
bk0: 696a 1045798i bk1: 696a 1045560i bk2: 688a 1044364i bk3: 688a 1043875i bk4: 628a 1044217i bk5: 628a 1044097i bk6: 744a 1043112i bk7: 744a 1042783i bk8: 756a 1043636i bk9: 756a 1043289i bk10: 768a 1043019i bk11: 768a 1043122i bk12: 744a 1044175i bk13: 744a 1044171i bk14: 704a 1045133i bk15: 704a 1045291i 
dram_util_bins: 0 0 0 0 0 0 0 0 0 0
dram_eff_bins: 0 0 0 0 0 0 0 0 0 0
mrqq: max=64 avg=1.29928
Memory Partition 4: 
Cache L2_bank_008:
MSHR contents

Cache L2_bank_009:
MSHR contents

In Dram Latency Queue (total = 0): 
DRAM[4]: 16 bks, busW=4 BL=8 CL=12, tRRD=2 tCCD=6, tRCD=12 tRAS=28 tRP=12 tRC=40
n_cmd=1059016 n_nop=1041656 n_act=208 n_pre=192 n_req=4240 n_rd=11464 n_write=5496 bw_util=0.03203
n_activity=48464 dram_eff=0.6999
bk0: 696a 1045943i bk1: 696a 1045342i bk2: 688a 1043977i bk3: 688a 1043623i bk4: 628a 1044066i bk5: 628a 1044091i bk6: 732a 1043922i bk7: 732a 1043398i bk8: 768a 1042915i bk9: 768a 1043236i bk10: 768a 1043422i bk11: 768a 1043813i bk12: 744a 1044120i bk13: 744a 1043929i bk14: 708a 1045193i bk15: 708a 1045458i 
dram_util_bins: 0 0 0 0 0 0 0 0 0 0
dram_eff_bins: 0 0 0 0 0 0 0 0 0 0
mrqq: max=64 avg=1.29291
Memory Partition 5: 
Cache L2_bank_010:
MSHR contents

Cache L2_bank_011:
MSHR contents
MSHR: tag=0x80791e80, atomic=0 1 entries : 0x7f210b2fcc40 :  mf: uid=644077, sid03:w11, part=5, addr=0x80791e80, load , size=128, unknown  status = IN_PARTITION_DRAM (792478), 

In Dram Latency Queue (total = 0): 
DRAM[5]: 16 bks, busW=4 BL=8 CL=12, tRRD=2 tCCD=6, tRCD=12 tRAS=28 tRP=12 tRC=40
n_cmd=1059016 n_nop=1041640 n_act=209 n_pre=193 n_req=4244 n_rd=11470 n_write=5504 bw_util=0.03206
n_activity=48856 dram_eff=0.6949
bk0: 696a 1045750i bk1: 696a 1045718i bk2: 680a 1044699i bk3: 680a 1044583i bk4: 640a 1043408i bk5: 640a 1043706i bk6: 732a 1043288i bk7: 732a 1042970i bk8: 768a 1043027i bk9: 768a 1042680i bk10: 768a 1042874i bk11: 768a 1042790i bk12: 744a 1043909i bk13: 742a 1043891i bk14: 708a 1045030i bk15: 708a 1045047i 
dram_util_bins: 0 0 0 0 0 0 0 0 0 0
dram_eff_bins: 0 0 0 0 0 0 0 0 0 0
mrqq: max=64 avg=1.29624
Memory Partition 6: 
Cache L2_bank_012:
MSHR contents

Cache L2_bank_013:
MSHR contents

In Dram Latency Queue (total = 0): 
DRAM[6]: 16 bks, busW=4 BL=8 CL=12, tRRD=2 tCCD=6, tRCD=12 tRAS=28 tRP=12 tRC=40
n_cmd=1059016 n_nop=1041664 n_act=204 n_pre=188 n_req=4240 n_rd=11464 n_write=5496 bw_util=0.03203
n_activity=48590 dram_eff=0.6981
bk0: 704a 1045124i bk1: 704a 1044863i bk2: 680a 1045316i bk3: 680a 1044527i bk4: 640a 1043884i bk5: 640a 1043646i bk6: 732a 1043572i bk7: 732a 1043226i bk8: 768a 1043123i bk9: 768a 1043525i bk10: 768a 1043046i bk11: 768a 1043250i bk12: 744a 1043661i bk13: 744a 1043691i bk14: 696a 1045717i bk15: 696a 1045970i 
dram_util_bins: 0 0 0 0 0 0 0 0 0 0
dram_eff_bins: 0 0 0 0 0 0 0 0 0 0
mrqq: max=64 avg=1.29648
Memory Partition 7: 
Cache L2_bank_014:
MSHR contents

Cache L2_bank_015:
MSHR contents

In Dram Latency Queue (total = 0): 
DRAM[7]: 16 bks, busW=4 BL=8 CL=12, tRRD=2 tCCD=6, tRCD=12 tRAS=28 tRP=12 tRC=40
n_cmd=1059016 n_nop=1041648 n_act=216 n_pre=200 n_req=4238 n_rd=11456 n_write=5496 bw_util=0.03201
n_activity=48847 dram_eff=0.6941
bk0: 704a 1045274i bk1: 704a 1045277i bk2: 676a 1044436i bk3: 676a 1044428i bk4: 640a 1043352i bk5: 640a 1043532i bk6: 732a 1043370i bk7: 732a 1043218i bk8: 768a 1043146i bk9: 768a 1043335i bk10: 756a 1042965i bk11: 756a 1043463i bk12: 756a 1043239i bk13: 756a 1043446i bk14: 696a 1045927i bk15: 696a 1045497i 
dram_util_bins: 0 0 0 0 0 0 0 0 0 0
dram_eff_bins: 0 0 0 0 0 0 0 0 0 0
mrqq: max=64 avg=1.29248
Memory Partition 8: 
Cache L2_bank_016:
MSHR contents

Cache L2_bank_017:
MSHR contents

In Dram Latency Queue (total = 0): 
DRAM[8]: 16 bks, busW=4 BL=8 CL=12, tRRD=2 tCCD=6, tRCD=12 tRAS=28 tRP=12 tRC=40
n_cmd=1059016 n_nop=1041650 n_act=207 n_pre=191 n_req=4242 n_rd=11464 n_write=5504 bw_util=0.03204
n_activity=48538 dram_eff=0.6992
bk0: 704a 1045244i bk1: 704a 1044938i bk2: 676a 1044475i bk3: 676a 1044144i bk4: 640a 1043424i bk5: 640a 1043890i bk6: 736a 1043450i bk7: 736a 1043328i bk8: 768a 1043242i bk9: 768a 1043229i bk10: 756a 1043232i bk11: 756a 1043851i bk12: 756a 1042529i bk13: 756a 1042984i bk14: 696a 1045469i bk15: 696a 1045643i 
dram_util_bins: 0 0 0 0 0 0 0 0 0 0
dram_eff_bins: 0 0 0 0 0 0 0 0 0 0
mrqq: max=64 avg=1.2953
Memory Partition 9: 
Cache L2_bank_018:
MSHR contents

Cache L2_bank_019:
MSHR contents

In Dram Latency Queue (total = 0): 
DRAM[9]: 16 bks, busW=4 BL=8 CL=12, tRRD=2 tCCD=6, tRCD=12 tRAS=28 tRP=12 tRC=40
n_cmd=1059016 n_nop=1041658 n_act=211 n_pre=195 n_req=4238 n_rd=11456 n_write=5496 bw_util=0.03201
n_activity=48411 dram_eff=0.7003
bk0: 692a 1045467i bk1: 692a 1045217i bk2: 684a 1044176i bk3: 684a 1043660i bk4: 640a 1043522i bk5: 640a 1043477i bk6: 736a 1043479i bk7: 736a 1044373i bk8: 768a 1043622i bk9: 768a 1043395i bk10: 756a 1043141i bk11: 756a 1043546i bk12: 756a 1042369i bk13: 756a 1042585i bk14: 696a 1045401i bk15: 696a 1045176i 
dram_util_bins: 0 0 0 0 0 0 0 0 0 0
dram_eff_bins: 0 0 0 0 0 0 0 0 0 0
mrqq: max=64 avg=1.29283
Memory Partition 10: 
Cache L2_bank_020:
MSHR contents

Cache L2_bank_021:
MSHR contents

In Dram Latency Queue (total = 0): 
DRAM[10]: 16 bks, busW=4 BL=8 CL=12, tRRD=2 tCCD=6, tRCD=12 tRAS=28 tRP=12 tRC=40
n_cmd=1059016 n_nop=1041646 n_act=213 n_pre=197 n_req=4240 n_rd=11464 n_write=5496 bw_util=0.03203
n_activity=48831 dram_eff=0.6946
bk0: 692a 1045339i bk1: 692a 1045738i bk2: 684a 1044294i bk3: 684a 1043883i bk4: 640a 1043920i bk5: 640a 1043606i bk6: 740a 1043348i bk7: 740a 1043448i bk8: 768a 1043082i bk9: 768a 1043198i bk10: 756a 1043263i bk11: 756a 1043803i bk12: 744a 1042988i bk13: 744a 1043622i bk14: 708a 1045259i bk15: 708a 1045289i 
dram_util_bins: 0 0 0 0 0 0 0 0 0 0
dram_eff_bins: 0 0 0 0 0 0 0 0 0 0
mrqq: max=64 avg=1.28854

========= L2 cache stats =========
L2_cache_bank[0]: Access = 2171, Miss = 1434, Miss_rate = 0.661, Pending_hits = 34, Reservation_fails = 0
L2_cache_bank[1]: Access = 2143, Miss = 1433, Miss_rate = 0.669, Pending_hits = 111, Reservation_fails = 0
L2_cache_bank[2]: Access = 2141, Miss = 1433, Miss_rate = 0.669, Pending_hits = 1, Reservation_fails = 0
L2_cache_bank[3]: Access = 2112, Miss = 1432, Miss_rate = 0.678, Pending_hits = 101, Reservation_fails = 0
L2_cache_bank[4]: Access = 2114, Miss = 1433, Miss_rate = 0.678, Pending_hits = 0, Reservation_fails = 0
L2_cache_bank[5]: Access = 2115, Miss = 1433, Miss_rate = 0.678, Pending_hits = 108, Reservation_fails = 0
L2_cache_bank[6]: Access = 2114, Miss = 1432, Miss_rate = 0.677, Pending_hits = 0, Reservation_fails = 0
L2_cache_bank[7]: Access = 2113, Miss = 1432, Miss_rate = 0.678, Pending_hits = 102, Reservation_fails = 0
L2_cache_bank[8]: Access = 2140, Miss = 1433, Miss_rate = 0.670, Pending_hits = 29, Reservation_fails = 0
L2_cache_bank[9]: Access = 2141, Miss = 1433, Miss_rate = 0.669, Pending_hits = 135, Reservation_fails = 0
L2_cache_bank[10]: Access = 2144, Miss = 1434, Miss_rate = 0.669, Pending_hits = 30, Reservation_fails = 0
L2_cache_bank[11]: Access = 2144, Miss = 1434, Miss_rate = 0.669, Pending_hits = 128, Reservation_fails = 0
L2_cache_bank[12]: Access = 2142, Miss = 1433, Miss_rate = 0.669, Pending_hits = 29, Reservation_fails = 0
L2_cache_bank[13]: Access = 2141, Miss = 1433, Miss_rate = 0.669, Pending_hits = 133, Reservation_fails = 0
L2_cache_bank[14]: Access = 2140, Miss = 1432, Miss_rate = 0.669, Pending_hits = 28, Reservation_fails = 0
L2_cache_bank[15]: Access = 2141, Miss = 1432, Miss_rate = 0.669, Pending_hits = 133, Reservation_fails = 0
L2_cache_bank[16]: Access = 2144, Miss = 1433, Miss_rate = 0.668, Pending_hits = 28, Reservation_fails = 0
L2_cache_bank[17]: Access = 2144, Miss = 1433, Miss_rate = 0.668, Pending_hits = 134, Reservation_fails = 0
L2_cache_bank[18]: Access = 2141, Miss = 1432, Miss_rate = 0.669, Pending_hits = 8, Reservation_fails = 0
L2_cache_bank[19]: Access = 2140, Miss = 1432, Miss_rate = 0.669, Pending_hits = 106, Reservation_fails = 0
L2_cache_bank[20]: Access = 2141, Miss = 1433, Miss_rate = 0.669, Pending_hits = 3, Reservation_fails = 0
L2_cache_bank[21]: Access = 2142, Miss = 1433, Miss_rate = 0.669, Pending_hits = 113, Reservation_fails = 0
L2_total_cache_accesses = 47008
L2_total_cache_misses = 31522
L2_total_cache_miss_rate = 0.6706
L2_total_cache_pending_hits = 1494
L2_total_cache_reservation_fails = 0
L2_total_cache_breakdown:
	L2_cache_stats_breakdown[GLOBAL_ACC_R][HIT] = 13832
	L2_cache_stats_breakdown[GLOBAL_ACC_R][HIT_RESERVED] = 1168
	L2_cache_stats_breakdown[GLOBAL_ACC_R][MISS] = 16384
	L2_cache_stats_breakdown[GLOBAL_ACC_R][RESERVATION_FAIL] = 0
	L2_cache_stats_breakdown[LOCAL_ACC_R][HIT] = 0
	L2_cache_stats_breakdown[LOCAL_ACC_R][HIT_RESERVED] = 0
	L2_cache_stats_breakdown[LOCAL_ACC_R][MISS] = 0
	L2_cache_stats_breakdown[LOCAL_ACC_R][RESERVATION_FAIL] = 0
	L2_cache_stats_breakdown[CONST_ACC_R][HIT] = 0
	L2_cache_stats_breakdown[CONST_ACC_R][HIT_RESERVED] = 27
	L2_cache_stats_breakdown[CONST_ACC_R][MISS] = 1
	L2_cache_stats_breakdown[CONST_ACC_R][RESERVATION_FAIL] = 0
	L2_cache_stats_breakdown[TEXTURE_ACC_R][HIT] = 0
	L2_cache_stats_breakdown[TEXTURE_ACC_R][HIT_RESERVED] = 0
	L2_cache_stats_breakdown[TEXTURE_ACC_R][MISS] = 0
	L2_cache_stats_breakdown[TEXTURE_ACC_R][RESERVATION_FAIL] = 0
	L2_cache_stats_breakdown[GLOBAL_ACC_W][HIT] = 0
	L2_cache_stats_breakdown[GLOBAL_ACC_W][HIT_RESERVED] = 0
	L2_cache_stats_breakdown[GLOBAL_ACC_W][MISS] = 15120
	L2_cache_stats_breakdown[GLOBAL_ACC_W][RESERVATION_FAIL] = 0
	L2_cache_stats_breakdown[LOCAL_ACC_W][HIT] = 0
	L2_cache_stats_breakdown[LOCAL_ACC_W][HIT_RESERVED] = 0
	L2_cache_stats_breakdown[LOCAL_ACC_W][MISS] = 0
	L2_cache_stats_breakdown[LOCAL_ACC_W][RESERVATION_FAIL] = 0
	L2_cache_stats_breakdown[L1_WRBK_ACC][HIT] = 0
	L2_cache_stats_breakdown[L1_WRBK_ACC][HIT_RESERVED] = 0
	L2_cache_stats_breakdown[L1_WRBK_ACC][MISS] = 0
	L2_cache_stats_breakdown[L1_WRBK_ACC][RESERVATION_FAIL] = 0
	L2_cache_stats_breakdown[L2_WRBK_ACC][HIT] = 0
	L2_cache_stats_breakdown[L2_WRBK_ACC][HIT_RESERVED] = 0
	L2_cache_stats_breakdown[L2_WRBK_ACC][MISS] = 0
	L2_cache_stats_breakdown[L2_WRBK_ACC][RESERVATION_FAIL] = 0
	L2_cache_stats_breakdown[INST_ACC_R][HIT] = 160
	L2_cache_stats_breakdown[INST_ACC_R][HIT_RESERVED] = 299
	L2_cache_stats_breakdown[INST_ACC_R][MISS] = 17
	L2_cache_stats_breakdown[INST_ACC_R][RESERVATION_FAIL] = 0
	L2_cache_stats_breakdown[L1_WR_ALLOC_R][HIT] = 0
	L2_cache_stats_breakdown[L1_WR_ALLOC_R][HIT_RESERVED] = 0
	L2_cache_stats_breakdown[L1_WR_ALLOC_R][MISS] = 0
	L2_cache_stats_breakdown[L1_WR_ALLOC_R][RESERVATION_FAIL] = 0
	L2_cache_stats_breakdown[L2_WR_ALLOC_R][HIT] = 0
	L2_cache_stats_breakdown[L2_WR_ALLOC_R][HIT_RESERVED] = 0
	L2_cache_stats_breakdown[L2_WR_ALLOC_R][MISS] = 0
	L2_cache_stats_breakdown[L2_WR_ALLOC_R][RESERVATION_FAIL] = 0
	L2_cache_stats_breakdown[GLOBAL_ACC_R][TOTAL_ACCESS] = 31384
	L2_cache_stats_breakdown[CONST_ACC_R][TOTAL_ACCESS] = 28
	L2_cache_stats_breakdown[GLOBAL_ACC_W][TOTAL_ACCESS] = 15120
	L2_cache_stats_breakdown[INST_ACC_R][TOTAL_ACCESS] = 476
L2_cache_data_port_util = 0.003
L2_cache_fill_port_util = 0.010

icnt_total_pkts_mem_to_simt=151824
icnt_total_pkts_simt_to_mem=107488
LD_mem_lat_dist  0 0 0 0 0 0 0 0 0 0 0 0 0 0 0 0 0 0 0 0 0 0 0 0 0 0 0
ST_mem_lat_dist  0 0 0 0 0 0 0 0 0 0 0 0 0 0 0 0 0 0 0 0 0 0 0 0 0 0 0
----------------------------Interconnect-DETAILS--------------------------------
Class 0:
Packet latency average = 22.3893
	minimum = 6
	maximum = 1541
Network latency average = 18.1469
	minimum = 6
	maximum = 1366
Slowest packet = 41119
Flit latency average = 21.0207
	minimum = 6
	maximum = 1362
Slowest flit = 116162
Fragmentation average = 1.02194
	minimum = 0
	maximum = 1289
Injected packet rate average = 0.00164845
	minimum = 0.00130627 (at node 0)
	maximum = 0.00195151 (at node 3)
Accepted packet rate average = 0.00164845
	minimum = 0.00130627 (at node 0)
	maximum = 0.00195151 (at node 3)
Injected flit rate average = 0.00454672
	minimum = 0.00298951 (at node 0)
	maximum = 0.00615348 (at node 28)
Accepted flit rate average= 0.00454672
	minimum = 0.00421512 (at node 0)
	maximum = 0.0062841 (at node 3)
Injected packet length average = 2.75817
Accepted packet length average = 2.75817
Total in-flight flits = 0 (0 measured)
====== Overall Traffic Statistics ======
====== Traffic class 0 ======
Packet latency average = 22.3893 (1 samples)
	minimum = 6 (1 samples)
	maximum = 1541 (1 samples)
Network latency average = 18.1469 (1 samples)
	minimum = 6 (1 samples)
	maximum = 1366 (1 samples)
Flit latency average = 21.0207 (1 samples)
	minimum = 6 (1 samples)
	maximum = 1362 (1 samples)
Fragmentation average = 1.02194 (1 samples)
	minimum = 0 (1 samples)
	maximum = 1289 (1 samples)
Injected packet rate average = 0.00164845 (1 samples)
	minimum = 0.00130627 (1 samples)
	maximum = 0.00195151 (1 samples)
Accepted packet rate average = 0.00164845 (1 samples)
	minimum = 0.00130627 (1 samples)
	maximum = 0.00195151 (1 samples)
Injected flit rate average = 0.00454672 (1 samples)
	minimum = 0.00298951 (1 samples)
	maximum = 0.00615348 (1 samples)
Accepted flit rate average = 0.00454672 (1 samples)
	minimum = 0.00421512 (1 samples)
	maximum = 0.0062841 (1 samples)
Injected packet size average = 2.75817 (1 samples)
Accepted packet size average = 2.75817 (1 samples)
Hops average = 1 (1 samples)
----------------------------END-of-Interconnect-DETAILS-------------------------


gpgpu_simulation_time = 0 days, 0 hrs, 19 min, 1 sec (1141 sec)
gpgpu_simulation_rate = 25283 (inst/sec)
gpgpu_simulation_rate = 694 (cycle/sec)

GPGPU-Sim PTX: cudaLaunch for 0x0x401496 (mode=performance simulation) on stream 0
GPGPU-Sim PTX: pushing kernel '_Z24block2D_hybrid_coarsen_xffPfS_iii' to stream 0, gridDim= (2,32,1) blockDim = (32,4,1) 
GPGPU-Sim uArch: Shader 9 bind to kernel 2 '_Z24block2D_hybrid_coarsen_xffPfS_iii'
GPGPU-Sim uArch: Shader 10 bind to kernel 2 '_Z24block2D_hybrid_coarsen_xffPfS_iii'
GPGPU-Sim uArch: Shader 11 bind to kernel 2 '_Z24block2D_hybrid_coarsen_xffPfS_iii'
GPGPU-Sim uArch: Shader 12 bind to kernel 2 '_Z24block2D_hybrid_coarsen_xffPfS_iii'
GPGPU-Sim uArch: Shader 13 bind to kernel 2 '_Z24block2D_hybrid_coarsen_xffPfS_iii'
GPGPU-Sim uArch: Shader 14 bind to kernel 2 '_Z24block2D_hybrid_coarsen_xffPfS_iii'
GPGPU-Sim uArch: Shader 15 bind to kernel 2 '_Z24block2D_hybrid_coarsen_xffPfS_iii'
GPGPU-Sim uArch: Shader 16 bind to kernel 2 '_Z24block2D_hybrid_coarsen_xffPfS_iii'
GPGPU-Sim uArch: Shader 17 bind to kernel 2 '_Z24block2D_hybrid_coarsen_xffPfS_iii'
GPGPU-Sim uArch: Shader 18 bind to kernel 2 '_Z24block2D_hybrid_coarsen_xffPfS_iii'
GPGPU-Sim uArch: Shader 19 bind to kernel 2 '_Z24block2D_hybrid_coarsen_xffPfS_iii'
GPGPU-Sim uArch: Shader 20 bind to kernel 2 '_Z24block2D_hybrid_coarsen_xffPfS_iii'
GPGPU-Sim uArch: Shader 21 bind to kernel 2 '_Z24block2D_hybrid_coarsen_xffPfS_iii'
GPGPU-Sim uArch: Shader 22 bind to kernel 2 '_Z24block2D_hybrid_coarsen_xffPfS_iii'
GPGPU-Sim uArch: Shader 23 bind to kernel 2 '_Z24block2D_hybrid_coarsen_xffPfS_iii'
GPGPU-Sim uArch: Shader 24 bind to kernel 2 '_Z24block2D_hybrid_coarsen_xffPfS_iii'
GPGPU-Sim uArch: Shader 25 bind to kernel 2 '_Z24block2D_hybrid_coarsen_xffPfS_iii'
GPGPU-Sim uArch: Shader 26 bind to kernel 2 '_Z24block2D_hybrid_coarsen_xffPfS_iii'
GPGPU-Sim uArch: Shader 27 bind to kernel 2 '_Z24block2D_hybrid_coarsen_xffPfS_iii'
GPGPU-Sim uArch: Shader 0 bind to kernel 2 '_Z24block2D_hybrid_coarsen_xffPfS_iii'
GPGPU-Sim uArch: Shader 1 bind to kernel 2 '_Z24block2D_hybrid_coarsen_xffPfS_iii'
GPGPU-Sim uArch: Shader 2 bind to kernel 2 '_Z24block2D_hybrid_coarsen_xffPfS_iii'
GPGPU-Sim uArch: Shader 3 bind to kernel 2 '_Z24block2D_hybrid_coarsen_xffPfS_iii'
GPGPU-Sim uArch: Shader 4 bind to kernel 2 '_Z24block2D_hybrid_coarsen_xffPfS_iii'
GPGPU-Sim uArch: Shader 5 bind to kernel 2 '_Z24block2D_hybrid_coarsen_xffPfS_iii'
GPGPU-Sim uArch: Shader 6 bind to kernel 2 '_Z24block2D_hybrid_coarsen_xffPfS_iii'
GPGPU-Sim uArch: Shader 7 bind to kernel 2 '_Z24block2D_hybrid_coarsen_xffPfS_iii'
GPGPU-Sim uArch: Shader 8 bind to kernel 2 '_Z24block2D_hybrid_coarsen_xffPfS_iii'
Destroy streams for kernel 2: size 0
kernel_name = _Z24block2D_hybrid_coarsen_xffPfS_iii 
kernel_launch_uid = 2 
gpu_sim_cycle = 121250
gpu_sim_insn = 28848876
gpu_ipc =     237.9289
gpu_tot_sim_cycle = 1135879
gpu_tot_sim_insn = 57697752
gpu_tot_ipc =      50.7957
gpu_tot_issued_cta = 128
max_total_param_size = 0
gpu_stall_dramfull = 94846
gpu_stall_icnt2sh    = 2744
partiton_reqs_in_parallel = 2667500
partiton_reqs_in_parallel_total    = 12452392
partiton_level_parallism =      22.0000
partiton_level_parallism_total  =      13.3112
partiton_reqs_in_parallel_util = 2667500
partiton_reqs_in_parallel_util_total    = 12452392
gpu_sim_cycle_parition_util = 121250
gpu_tot_sim_cycle_parition_util    = 569374
partiton_level_parallism_util =      22.0000
partiton_level_parallism_util_total  =      21.8931
partiton_replys_in_parallel = 46504
partiton_replys_in_parallel_total    = 47008
L2_BW  =      36.3533 GB/Sec
L2_BW_total  =       7.8032 GB/Sec
gpu_total_sim_rate=41036

========= Core cache stats =========
L1I_cache:
	L1I_total_cache_accesses = 1158456
	L1I_total_cache_misses = 3000
	L1I_total_cache_miss_rate = 0.0026
	L1I_total_cache_pending_hits = 0
	L1I_total_cache_reservation_fails = 0
L1D_cache:
	L1D_cache_core[0]: Access = 0, Miss = 0, Miss_rate = -nan, Pending_hits = 0, Reservation_fails = 0
	L1D_cache_core[1]: Access = 0, Miss = 0, Miss_rate = -nan, Pending_hits = 0, Reservation_fails = 0
	L1D_cache_core[2]: Access = 0, Miss = 0, Miss_rate = -nan, Pending_hits = 0, Reservation_fails = 0
	L1D_cache_core[3]: Access = 0, Miss = 0, Miss_rate = -nan, Pending_hits = 0, Reservation_fails = 0
	L1D_cache_core[4]: Access = 0, Miss = 0, Miss_rate = -nan, Pending_hits = 0, Reservation_fails = 0
	L1D_cache_core[5]: Access = 0, Miss = 0, Miss_rate = -nan, Pending_hits = 0, Reservation_fails = 0
	L1D_cache_core[6]: Access = 0, Miss = 0, Miss_rate = -nan, Pending_hits = 0, Reservation_fails = 0
	L1D_cache_core[7]: Access = 0, Miss = 0, Miss_rate = -nan, Pending_hits = 0, Reservation_fails = 0
	L1D_cache_core[8]: Access = 0, Miss = 0, Miss_rate = -nan, Pending_hits = 0, Reservation_fails = 0
	L1D_cache_core[9]: Access = 0, Miss = 0, Miss_rate = -nan, Pending_hits = 0, Reservation_fails = 0
	L1D_cache_core[10]: Access = 0, Miss = 0, Miss_rate = -nan, Pending_hits = 0, Reservation_fails = 0
	L1D_cache_core[11]: Access = 0, Miss = 0, Miss_rate = -nan, Pending_hits = 0, Reservation_fails = 0
	L1D_cache_core[12]: Access = 0, Miss = 0, Miss_rate = -nan, Pending_hits = 0, Reservation_fails = 0
	L1D_cache_core[13]: Access = 0, Miss = 0, Miss_rate = -nan, Pending_hits = 0, Reservation_fails = 0
	L1D_cache_core[14]: Access = 0, Miss = 0, Miss_rate = -nan, Pending_hits = 0, Reservation_fails = 0
	L1D_cache_core[15]: Access = 0, Miss = 0, Miss_rate = -nan, Pending_hits = 0, Reservation_fails = 0
	L1D_cache_core[16]: Access = 0, Miss = 0, Miss_rate = -nan, Pending_hits = 0, Reservation_fails = 0
	L1D_cache_core[17]: Access = 0, Miss = 0, Miss_rate = -nan, Pending_hits = 0, Reservation_fails = 0
	L1D_cache_core[18]: Access = 0, Miss = 0, Miss_rate = -nan, Pending_hits = 0, Reservation_fails = 0
	L1D_cache_core[19]: Access = 0, Miss = 0, Miss_rate = -nan, Pending_hits = 0, Reservation_fails = 0
	L1D_cache_core[20]: Access = 0, Miss = 0, Miss_rate = -nan, Pending_hits = 0, Reservation_fails = 0
	L1D_cache_core[21]: Access = 0, Miss = 0, Miss_rate = -nan, Pending_hits = 0, Reservation_fails = 0
	L1D_cache_core[22]: Access = 0, Miss = 0, Miss_rate = -nan, Pending_hits = 0, Reservation_fails = 0
	L1D_cache_core[23]: Access = 0, Miss = 0, Miss_rate = -nan, Pending_hits = 0, Reservation_fails = 0
	L1D_cache_core[24]: Access = 0, Miss = 0, Miss_rate = -nan, Pending_hits = 0, Reservation_fails = 0
	L1D_cache_core[25]: Access = 0, Miss = 0, Miss_rate = -nan, Pending_hits = 0, Reservation_fails = 0
	L1D_cache_core[26]: Access = 0, Miss = 0, Miss_rate = -nan, Pending_hits = 0, Reservation_fails = 0
	L1D_cache_core[27]: Access = 0, Miss = 0, Miss_rate = -nan, Pending_hits = 0, Reservation_fails = 0
	L1D_total_cache_accesses = 0
	L1D_total_cache_misses = 0
	L1D_total_cache_pending_hits = 0
	L1D_total_cache_reservation_fails = 0
	L1D_cache_data_port_util = 0.000
	L1D_cache_fill_port_util = 0.000
L1C_cache:
	L1C_total_cache_accesses = 3584
	L1C_total_cache_misses = 1632
	L1C_total_cache_miss_rate = 0.4554
	L1C_total_cache_pending_hits = 0
[...]
F: 12907886----T: 12916126 	 St: 803c4000 Sz: 61440 	 Sm: 0 	 T: memcpy_h2d(5.563808)
F: 12914973----T: 12923675 	 St: 80573000 Sz: 65536 	 Sm: 0 	 T: write_back(5.875760)
F: 12916126----T: 12918731 	 St: 803d3000 Sz: 4096 	 Sm: 0 	 T: memcpy_h2d(1.758947)
F: 12918731----T: 12926971 	 St: 803d4000 Sz: 61440 	 Sm: 0 	 T: memcpy_h2d(5.563808)
F: 12923675----T: 12932377 	 St: 80593000 Sz: 65536 	 Sm: 0 	 T: write_back(5.875760)
F: 12926971----T: 12929576 	 St: 803e3000 Sz: 4096 	 Sm: 0 	 T: memcpy_h2d(1.758947)
F: 12929576----T: 12937816 	 St: 803e4000 Sz: 61440 	 Sm: 0 	 T: memcpy_h2d(5.563808)
F: 12932377----T: 12941079 	 St: 80583000 Sz: 65536 	 Sm: 0 	 T: write_back(5.875760)
F: 12937816----T: 12940421 	 St: 80403000 Sz: 4096 	 Sm: 0 	 T: memcpy_h2d(1.758947)
F: 12940421----T: 12948661 	 St: 80404000 Sz: 61440 	 Sm: 0 	 T: memcpy_h2d(5.563808)
F: 12941079----T: 12949781 	 St: 805a3000 Sz: 65536 	 Sm: 0 	 T: write_back(5.875760)
F: 12948661----T: 12951266 	 St: 80473000 Sz: 4096 	 Sm: 0 	 T: memcpy_h2d(1.758947)
F: 12949781----T: 12958483 	 St: 805b3000 Sz: 65536 	 Sm: 0 	 T: write_back(5.875760)
F: 12951266----T: 12959506 	 St: 80474000 Sz: 61440 	 Sm: 0 	 T: memcpy_h2d(5.563808)
F: 12958484----T: 12967186 	 St: 805c3000 Sz: 65536 	 Sm: 0 	 T: write_back(5.875760)
F: 12959506----T: 12962111 	 St: 80513000 Sz: 4096 	 Sm: 0 	 T: memcpy_h2d(1.758947)
F: 12962111----T: 12970351 	 St: 80514000 Sz: 61440 	 Sm: 0 	 T: memcpy_h2d(5.563808)
F: 12970351----T: 12972956 	 St: 80573000 Sz: 4096 	 Sm: 0 	 T: memcpy_h2d(1.758947)
F: 12972956----T: 12981196 	 St: 80574000 Sz: 61440 	 Sm: 0 	 T: memcpy_h2d(5.563808)
F: 12981196----T: 12983801 	 St: 80793000 Sz: 4096 	 Sm: 0 	 T: memcpy_h2d(1.758947)
F: 12983801----T: 12992041 	 St: 80794000 Sz: 61440 	 Sm: 0 	 T: memcpy_h2d(5.563808)
F: 12984318----T: 12993020 	 St: 805d3000 Sz: 65536 	 Sm: 0 	 T: write_back(5.875760)
F: 12992041----T: 12994646 	 St: 80583000 Sz: 4096 	 Sm: 0 	 T: memcpy_h2d(1.758947)
F: 12994646----T: 13002886 	 St: 80584000 Sz: 61440 	 Sm: 0 	 T: memcpy_h2d(5.563808)
F: 13225827----T: 13349863 	 	 	 Kl: 37 	 Sm: 0 	 T: kernel_launch(83.751518)
F: 13226211----T: 13229297 	 St: 803a3000 Sz: 12288 	 Sm: 0 	 T: memcpy_h2d(2.083727)
F: 13226211----T: 13234913 	 St: 805e3000 Sz: 65536 	 Sm: 0 	 T: write_back(5.875760)
F: 13229297----T: 13231902 	 St: 803a6000 Sz: 4096 	 Sm: 0 	 T: memcpy_h2d(1.758947)
F: 13231902----T: 13234507 	 St: 803a7000 Sz: 4096 	 Sm: 0 	 T: memcpy_h2d(1.758947)
F: 13234507----T: 13240919 	 St: 803a8000 Sz: 45056 	 Sm: 0 	 T: memcpy_h2d(4.329507)
F: 13234913----T: 13243615 	 St: 80603000 Sz: 65536 	 Sm: 0 	 T: write_back(5.875760)
F: 13240919----T: 13243719 	 St: 805b3000 Sz: 8192 	 Sm: 0 	 T: memcpy_h2d(1.890614)
F: 13243615----T: 13252317 	 St: 80683000 Sz: 65536 	 Sm: 0 	 T: write_back(5.875760)
F: 13243719----T: 13251499 	 St: 805b5000 Sz: 57344 	 Sm: 0 	 T: memcpy_h2d(5.253207)
F: 13251499----T: 13254104 	 St: 805c3000 Sz: 4096 	 Sm: 0 	 T: memcpy_h2d(1.758947)
F: 13252317----T: 13261019 	 St: 80713000 Sz: 65536 	 Sm: 0 	 T: write_back(5.875760)
F: 13254104----T: 13262344 	 St: 805c4000 Sz: 61440 	 Sm: 0 	 T: memcpy_h2d(5.563808)
F: 13261019----T: 13269721 	 St: 80773000 Sz: 65536 	 Sm: 0 	 T: write_back(5.875760)
F: 13262344----T: 13264949 	 St: 805d3000 Sz: 4096 	 Sm: 0 	 T: memcpy_h2d(1.758947)
F: 13264949----T: 13273189 	 St: 805d4000 Sz: 61440 	 Sm: 0 	 T: memcpy_h2d(5.563808)
F: 13269721----T: 13278423 	 St: 80793000 Sz: 65536 	 Sm: 0 	 T: write_back(5.875760)
F: 13273189----T: 13275794 	 St: 805e3000 Sz: 4096 	 Sm: 0 	 T: memcpy_h2d(1.758947)
F: 13275794----T: 13284034 	 St: 805e4000 Sz: 61440 	 Sm: 0 	 T: memcpy_h2d(5.563808)
F: 13278423----T: 13287125 	 St: 80783000 Sz: 65536 	 Sm: 0 	 T: write_back(5.875760)
F: 13284034----T: 13286639 	 St: 80603000 Sz: 4096 	 Sm: 0 	 T: memcpy_h2d(1.758947)
F: 13286639----T: 13294879 	 St: 80604000 Sz: 61440 	 Sm: 0 	 T: memcpy_h2d(5.563808)
F: 13287125----T: 13295827 	 St: 803a3000 Sz: 65536 	 Sm: 0 	 T: write_back(5.875760)
F: 13294879----T: 13297484 	 St: 80683000 Sz: 4096 	 Sm: 0 	 T: memcpy_h2d(1.758947)
F: 13295827----T: 13304529 	 St: 803b3000 Sz: 65536 	 Sm: 0 	 T: write_back(5.875760)
F: 13297484----T: 13305724 	 St: 80684000 Sz: 61440 	 Sm: 0 	 T: memcpy_h2d(5.563808)
F: 13304530----T: 13313232 	 St: 803c3000 Sz: 65536 	 Sm: 0 	 T: write_back(5.875760)
F: 13305724----T: 13308329 	 St: 80713000 Sz: 4096 	 Sm: 0 	 T: memcpy_h2d(1.758947)
F: 13308329----T: 13316569 	 St: 80714000 Sz: 61440 	 Sm: 0 	 T: memcpy_h2d(5.563808)
F: 13316569----T: 13319174 	 St: 80773000 Sz: 4096 	 Sm: 0 	 T: memcpy_h2d(1.758947)
F: 13319174----T: 13327414 	 St: 80774000 Sz: 61440 	 Sm: 0 	 T: memcpy_h2d(5.563808)
F: 13327414----T: 13330019 	 St: 80593000 Sz: 4096 	 Sm: 0 	 T: memcpy_h2d(1.758947)
F: 13330019----T: 13338259 	 St: 80594000 Sz: 61440 	 Sm: 0 	 T: memcpy_h2d(5.563808)
F: 13330535----T: 13339237 	 St: 803d3000 Sz: 65536 	 Sm: 0 	 T: write_back(5.875760)
F: 13338259----T: 13340864 	 St: 80783000 Sz: 4096 	 Sm: 0 	 T: memcpy_h2d(1.758947)
F: 13340864----T: 13349104 	 St: 80784000 Sz: 61440 	 Sm: 0 	 T: memcpy_h2d(5.563808)
F: 13572013----T: 13695466 	 	 	 Kl: 38 	 Sm: 0 	 T: kernel_launch(83.357864)
F: 13572396----T: 13575482 	 St: 805a3000 Sz: 12288 	 Sm: 0 	 T: memcpy_h2d(2.083727)
F: 13572396----T: 13581098 	 St: 803e3000 Sz: 65536 	 Sm: 0 	 T: write_back(5.875760)
F: 13575482----T: 13578087 	 St: 805a6000 Sz: 4096 	 Sm: 0 	 T: memcpy_h2d(1.758947)
F: 13578087----T: 13580692 	 St: 805a7000 Sz: 4096 	 Sm: 0 	 T: memcpy_h2d(1.758947)
F: 13580692----T: 13587104 	 St: 805a8000 Sz: 45056 	 Sm: 0 	 T: memcpy_h2d(4.329507)
F: 13581098----T: 13589800 	 St: 80403000 Sz: 65536 	 Sm: 0 	 T: write_back(5.875760)
F: 13587104----T: 13590190 	 St: 803b3000 Sz: 12288 	 Sm: 0 	 T: memcpy_h2d(2.083727)
F: 13589800----T: 13598502 	 St: 80483000 Sz: 65536 	 Sm: 0 	 T: write_back(5.875760)
F: 13590190----T: 13597512 	 St: 803b6000 Sz: 53248 	 Sm: 0 	 T: memcpy_h2d(4.943957)
F: 13597512----T: 13600117 	 St: 803c3000 Sz: 4096 	 Sm: 0 	 T: memcpy_h2d(1.758947)
F: 13598502----T: 13607204 	 St: 80523000 Sz: 65536 	 Sm: 0 	 T: write_back(5.875760)
F: 13600117----T: 13608357 	 St: 803c4000 Sz: 61440 	 Sm: 0 	 T: memcpy_h2d(5.563808)
F: 13607204----T: 13615906 	 St: 80563000 Sz: 65536 	 Sm: 0 	 T: write_back(5.875760)
F: 13608357----T: 13610962 	 St: 803d3000 Sz: 4096 	 Sm: 0 	 T: memcpy_h2d(1.758947)
F: 13610962----T: 13619202 	 St: 803d4000 Sz: 61440 	 Sm: 0 	 T: memcpy_h2d(5.563808)
F: 13615906----T: 13624608 	 St: 80593000 Sz: 65536 	 Sm: 0 	 T: write_back(5.875760)
F: 13619202----T: 13621807 	 St: 803e3000 Sz: 4096 	 Sm: 0 	 T: memcpy_h2d(1.758947)
F: 13621807----T: 13630047 	 St: 803e4000 Sz: 61440 	 Sm: 0 	 T: memcpy_h2d(5.563808)
F: 13624608----T: 13633310 	 St: 80583000 Sz: 65536 	 Sm: 0 	 T: write_back(5.875760)
F: 13630047----T: 13632652 	 St: 80403000 Sz: 4096 	 Sm: 0 	 T: memcpy_h2d(1.758947)
F: 13632652----T: 13640892 	 St: 80404000 Sz: 61440 	 Sm: 0 	 T: memcpy_h2d(5.563808)
F: 13633310----T: 13642012 	 St: 805a3000 Sz: 65536 	 Sm: 0 	 T: write_back(5.875760)
F: 13640892----T: 13643497 	 St: 80483000 Sz: 4096 	 Sm: 0 	 T: memcpy_h2d(1.758947)
F: 13642012----T: 13650714 	 St: 805b3000 Sz: 65536 	 Sm: 0 	 T: write_back(5.875760)
F: 13643497----T: 13651737 	 St: 80484000 Sz: 61440 	 Sm: 0 	 T: memcpy_h2d(5.563808)
F: 13650715----T: 13659417 	 St: 805c3000 Sz: 65536 	 Sm: 0 	 T: write_back(5.875760)
F: 13651737----T: 13654823 	 St: 80523000 Sz: 12288 	 Sm: 0 	 T: memcpy_h2d(2.083727)
F: 13654823----T: 13662145 	 St: 80526000 Sz: 53248 	 Sm: 0 	 T: memcpy_h2d(4.943957)
F: 13662145----T: 13664750 	 St: 80563000 Sz: 4096 	 Sm: 0 	 T: memcpy_h2d(1.758947)
F: 13664750----T: 13672990 	 St: 80564000 Sz: 61440 	 Sm: 0 	 T: memcpy_h2d(5.563808)
F: 13672990----T: 13675595 	 St: 80793000 Sz: 4096 	 Sm: 0 	 T: memcpy_h2d(1.758947)
F: 13675595----T: 13683835 	 St: 80794000 Sz: 61440 	 Sm: 0 	 T: memcpy_h2d(5.563808)
F: 13676112----T: 13684814 	 St: 805d3000 Sz: 65536 	 Sm: 0 	 T: write_back(5.875760)
F: 13683835----T: 13686440 	 St: 80583000 Sz: 4096 	 Sm: 0 	 T: memcpy_h2d(1.758947)
F: 13686440----T: 13694680 	 St: 80584000 Sz: 61440 	 Sm: 0 	 T: memcpy_h2d(5.563808)
F: 13917616----T: 14041476 	 	 	 Kl: 39 	 Sm: 0 	 T: kernel_launch(83.632683)
F: 13918000----T: 13921086 	 St: 803a3000 Sz: 12288 	 Sm: 0 	 T: memcpy_h2d(2.083727)
F: 13918000----T: 13926702 	 St: 805e3000 Sz: 65536 	 Sm: 0 	 T: write_back(5.875760)
F: 13921086----T: 13923691 	 St: 803a6000 Sz: 4096 	 Sm: 0 	 T: memcpy_h2d(1.758947)
F: 13923691----T: 13926296 	 St: 803a7000 Sz: 4096 	 Sm: 0 	 T: memcpy_h2d(1.758947)
F: 13926296----T: 13932708 	 St: 803a8000 Sz: 45056 	 Sm: 0 	 T: memcpy_h2d(4.329507)
F: 13926702----T: 13935404 	 St: 80603000 Sz: 65536 	 Sm: 0 	 T: write_back(5.875760)
F: 13932708----T: 13935794 	 St: 805b3000 Sz: 12288 	 Sm: 0 	 T: memcpy_h2d(2.083727)
F: 13935404----T: 13944106 	 St: 80683000 Sz: 65536 	 Sm: 0 	 T: write_back(5.875760)
F: 13935794----T: 13943116 	 St: 805b6000 Sz: 53248 	 Sm: 0 	 T: memcpy_h2d(4.943957)
F: 13943116----T: 13945721 	 St: 805c3000 Sz: 4096 	 Sm: 0 	 T: memcpy_h2d(1.758947)
F: 13944106----T: 13952808 	 St: 806f3000 Sz: 65536 	 Sm: 0 	 T: write_back(5.875760)
F: 13945721----T: 13953961 	 St: 805c4000 Sz: 61440 	 Sm: 0 	 T: memcpy_h2d(5.563808)
F: 13952808----T: 13961510 	 St: 80773000 Sz: 65536 	 Sm: 0 	 T: write_back(5.875760)
F: 13953961----T: 13956566 	 St: 805d3000 Sz: 4096 	 Sm: 0 	 T: memcpy_h2d(1.758947)
F: 13956566----T: 13964806 	 St: 805d4000 Sz: 61440 	 Sm: 0 	 T: memcpy_h2d(5.563808)
F: 13961510----T: 13970212 	 St: 80793000 Sz: 65536 	 Sm: 0 	 T: write_back(5.875760)
F: 13964806----T: 13967411 	 St: 805e3000 Sz: 4096 	 Sm: 0 	 T: memcpy_h2d(1.758947)
F: 13967411----T: 13975651 	 St: 805e4000 Sz: 61440 	 Sm: 0 	 T: memcpy_h2d(5.563808)
F: 13970212----T: 13978914 	 St: 80783000 Sz: 65536 	 Sm: 0 	 T: write_back(5.875760)
F: 13975651----T: 13978256 	 St: 80603000 Sz: 4096 	 Sm: 0 	 T: memcpy_h2d(1.758947)
F: 13978256----T: 13986496 	 St: 80604000 Sz: 61440 	 Sm: 0 	 T: memcpy_h2d(5.563808)
F: 13978914----T: 13987616 	 St: 803a3000 Sz: 65536 	 Sm: 0 	 T: write_back(5.875760)
F: 13986496----T: 13989101 	 St: 80683000 Sz: 4096 	 Sm: 0 	 T: memcpy_h2d(1.758947)
F: 13987616----T: 13996318 	 St: 803b3000 Sz: 65536 	 Sm: 0 	 T: write_back(5.875760)
F: 13989101----T: 13997341 	 St: 80684000 Sz: 61440 	 Sm: 0 	 T: memcpy_h2d(5.563808)
F: 13996319----T: 14005021 	 St: 803c3000 Sz: 65536 	 Sm: 0 	 T: write_back(5.875760)
F: 13997341----T: 13999946 	 St: 806f3000 Sz: 4096 	 Sm: 0 	 T: memcpy_h2d(1.758947)
F: 13999946----T: 14008186 	 St: 806f4000 Sz: 61440 	 Sm: 0 	 T: memcpy_h2d(5.563808)
F: 14008186----T: 14010791 	 St: 80773000 Sz: 4096 	 Sm: 0 	 T: memcpy_h2d(1.758947)
F: 14010791----T: 14019031 	 St: 80774000 Sz: 61440 	 Sm: 0 	 T: memcpy_h2d(5.563808)
F: 14019031----T: 14021636 	 St: 80593000 Sz: 4096 	 Sm: 0 	 T: memcpy_h2d(1.758947)
F: 14021636----T: 14029876 	 St: 80594000 Sz: 61440 	 Sm: 0 	 T: memcpy_h2d(5.563808)
F: 14022152----T: 14030854 	 St: 803d3000 Sz: 65536 	 Sm: 0 	 T: write_back(5.875760)
F: 14029876----T: 14032481 	 St: 80783000 Sz: 4096 	 Sm: 0 	 T: memcpy_h2d(1.758947)
F: 14032481----T: 14040721 	 St: 80784000 Sz: 61440 	 Sm: 0 	 T: memcpy_h2d(5.563808)
F: 14263626----T: 14517659 	 	 	 Kl: 40 	 Sm: 0 	 T: kernel_launch(171.528015)
F: 14264010----T: 14267096 	 St: 805a3000 Sz: 12288 	 Sm: 0 	 T: memcpy_h2d(2.083727)
F: 14264010----T: 14272712 	 St: 803e3000 Sz: 65536 	 Sm: 0 	 T: write_back(5.875760)
F: 14267096----T: 14269701 	 St: 805a6000 Sz: 4096 	 Sm: 0 	 T: memcpy_h2d(1.758947)
F: 14269701----T: 14272306 	 St: 805a7000 Sz: 4096 	 Sm: 0 	 T: memcpy_h2d(1.758947)
F: 14272306----T: 14278718 	 St: 805a8000 Sz: 45056 	 Sm: 0 	 T: memcpy_h2d(4.329507)
F: 14272712----T: 14281414 	 St: 80403000 Sz: 65536 	 Sm: 0 	 T: write_back(5.875760)
F: 14278718----T: 14281804 	 St: 803b3000 Sz: 12288 	 Sm: 0 	 T: memcpy_h2d(2.083727)
F: 14281414----T: 14290116 	 St: 80473000 Sz: 65536 	 Sm: 0 	 T: write_back(5.875760)
F: 14281804----T: 14289126 	 St: 803b6000 Sz: 53248 	 Sm: 0 	 T: memcpy_h2d(4.943957)
F: 14289126----T: 14291731 	 St: 803c3000 Sz: 4096 	 Sm: 0 	 T: memcpy_h2d(1.758947)
F: 14290116----T: 14298818 	 St: 80723000 Sz: 65536 	 Sm: 0 	 T: write_back(5.875760)
F: 14291731----T: 14299971 	 St: 803c4000 Sz: 61440 	 Sm: 0 	 T: memcpy_h2d(5.563808)
F: 14298818----T: 14307520 	 St: 80513000 Sz: 65536 	 Sm: 0 	 T: write_back(5.875760)
F: 14299971----T: 14302576 	 St: 803d3000 Sz: 4096 	 Sm: 0 	 T: memcpy_h2d(1.758947)
F: 14302576----T: 14310816 	 St: 803d4000 Sz: 61440 	 Sm: 0 	 T: memcpy_h2d(5.563808)
F: 14307520----T: 14316222 	 St: 80533000 Sz: 65536 	 Sm: 0 	 T: write_back(5.875760)
F: 14310816----T: 14313421 	 St: 803e3000 Sz: 4096 	 Sm: 0 	 T: memcpy_h2d(1.758947)
F: 14313421----T: 14321661 	 St: 803e4000 Sz: 61440 	 Sm: 0 	 T: memcpy_h2d(5.563808)
F: 14316222----T: 14324924 	 St: 80733000 Sz: 65536 	 Sm: 0 	 T: write_back(5.875760)
F: 14321661----T: 14324266 	 St: 80403000 Sz: 4096 	 Sm: 0 	 T: memcpy_h2d(1.758947)
F: 14324266----T: 14332506 	 St: 80404000 Sz: 61440 	 Sm: 0 	 T: memcpy_h2d(5.563808)
F: 14324925----T: 14333627 	 St: 80543000 Sz: 65536 	 Sm: 0 	 T: write_back(5.875760)
F: 14332506----T: 14335111 	 St: 80473000 Sz: 4096 	 Sm: 0 	 T: memcpy_h2d(1.758947)
F: 14335111----T: 14343351 	 St: 80474000 Sz: 61440 	 Sm: 0 	 T: memcpy_h2d(5.563808)
F: 14343351----T: 14345956 	 St: 80723000 Sz: 4096 	 Sm: 0 	 T: memcpy_h2d(1.758947)
F: 14345956----T: 14354196 	 St: 80724000 Sz: 61440 	 Sm: 0 	 T: memcpy_h2d(5.563808)
F: 14346473----T: 14355175 	 St: 80743000 Sz: 65536 	 Sm: 0 	 T: write_back(5.875760)
F: 14354196----T: 14356801 	 St: 80513000 Sz: 4096 	 Sm: 0 	 T: memcpy_h2d(1.758947)
F: 14355176----T: 14363878 	 St: 80523000 Sz: 65536 	 Sm: 0 	 T: write_back(5.875760)
F: 14356801----T: 14365041 	 St: 80514000 Sz: 61440 	 Sm: 0 	 T: memcpy_h2d(5.563808)
F: 14365041----T: 14367646 	 St: 80733000 Sz: 4096 	 Sm: 0 	 T: memcpy_h2d(1.758947)
F: 14367646----T: 14375886 	 St: 80734000 Sz: 61440 	 Sm: 0 	 T: memcpy_h2d(5.563808)
F: 14368162----T: 14376864 	 St: 80553000 Sz: 65536 	 Sm: 0 	 T: write_back(5.875760)
F: 14375886----T: 14378491 	 St: 80523000 Sz: 4096 	 Sm: 0 	 T: memcpy_h2d(1.758947)
F: 14376865----T: 14385567 	 St: 80753000 Sz: 65536 	 Sm: 0 	 T: write_back(5.875760)
F: 14378491----T: 14386731 	 St: 80524000 Sz: 61440 	 Sm: 0 	 T: memcpy_h2d(5.563808)
F: 14386731----T: 14389336 	 St: 80743000 Sz: 4096 	 Sm: 0 	 T: memcpy_h2d(1.758947)
F: 14389336----T: 14397576 	 St: 80744000 Sz: 61440 	 Sm: 0 	 T: memcpy_h2d(5.563808)
F: 14389852----T: 14398554 	 St: 80563000 Sz: 65536 	 Sm: 0 	 T: write_back(5.875760)
F: 14397576----T: 14400181 	 St: 80533000 Sz: 4096 	 Sm: 0 	 T: memcpy_h2d(1.758947)
F: 14398555----T: 14407257 	 St: 80763000 Sz: 65536 	 Sm: 0 	 T: write_back(5.875760)
F: 14400181----T: 14408421 	 St: 80534000 Sz: 61440 	 Sm: 0 	 T: memcpy_h2d(5.563808)
F: 14408421----T: 14411026 	 St: 80753000 Sz: 4096 	 Sm: 0 	 T: memcpy_h2d(1.758947)
F: 14411026----T: 14419266 	 St: 80754000 Sz: 61440 	 Sm: 0 	 T: memcpy_h2d(5.563808)
F: 14411542----T: 14420244 	 St: 80573000 Sz: 65536 	 Sm: 0 	 T: write_back(5.875760)
F: 14419266----T: 14421871 	 St: 80543000 Sz: 4096 	 Sm: 0 	 T: memcpy_h2d(1.758947)
F: 14420245----T: 14428947 	 St: 80773000 Sz: 65536 	 Sm: 0 	 T: write_back(5.875760)
F: 14421871----T: 14430111 	 St: 80544000 Sz: 61440 	 Sm: 0 	 T: memcpy_h2d(5.563808)
F: 14430111----T: 14432716 	 St: 80763000 Sz: 4096 	 Sm: 0 	 T: memcpy_h2d(1.758947)
F: 14432716----T: 14440956 	 St: 80764000 Sz: 61440 	 Sm: 0 	 T: memcpy_h2d(5.563808)
F: 14433233----T: 14441935 	 St: 80593000 Sz: 65536 	 Sm: 0 	 T: write_back(5.875760)
F: 14440956----T: 14443561 	 St: 80553000 Sz: 4096 	 Sm: 0 	 T: memcpy_h2d(1.758947)
F: 14441936----T: 14450638 	 St: 80583000 Sz: 65536 	 Sm: 0 	 T: write_back(5.875760)
F: 14443561----T: 14451801 	 St: 80554000 Sz: 61440 	 Sm: 0 	 T: memcpy_h2d(5.563808)
F: 14451801----T: 14454406 	 St: 80773000 Sz: 4096 	 Sm: 0 	 T: memcpy_h2d(1.758947)
F: 14454406----T: 14462646 	 St: 80774000 Sz: 61440 	 Sm: 0 	 T: memcpy_h2d(5.563808)
F: 14454923----T: 14463625 	 St: 80783000 Sz: 65536 	 Sm: 0 	 T: write_back(5.875760)
F: 14462646----T: 14465251 	 St: 80563000 Sz: 4096 	 Sm: 0 	 T: memcpy_h2d(1.758947)
F: 14463626----T: 14472328 	 St: 805a3000 Sz: 65536 	 Sm: 0 	 T: write_back(5.875760)
F: 14465251----T: 14473491 	 St: 80564000 Sz: 61440 	 Sm: 0 	 T: memcpy_h2d(5.563808)
F: 14473491----T: 14476096 	 St: 80783000 Sz: 4096 	 Sm: 0 	 T: memcpy_h2d(1.758947)
F: 14476096----T: 14484336 	 St: 80784000 Sz: 61440 	 Sm: 0 	 T: memcpy_h2d(5.563808)
F: 14476613----T: 14485315 	 St: 805b3000 Sz: 65536 	 Sm: 0 	 T: write_back(5.875760)
F: 14484336----T: 14486941 	 St: 80573000 Sz: 4096 	 Sm: 0 	 T: memcpy_h2d(1.758947)
F: 14485316----T: 14494018 	 St: 805c3000 Sz: 65536 	 Sm: 0 	 T: write_back(5.875760)
F: 14486941----T: 14495181 	 St: 80574000 Sz: 61440 	 Sm: 0 	 T: memcpy_h2d(5.563808)
F: 14495181----T: 14497786 	 St: 80793000 Sz: 4096 	 Sm: 0 	 T: memcpy_h2d(1.758947)
F: 14497786----T: 14506026 	 St: 80794000 Sz: 61440 	 Sm: 0 	 T: memcpy_h2d(5.563808)
F: 14498302----T: 14507004 	 St: 805d3000 Sz: 65536 	 Sm: 0 	 T: write_back(5.875760)
F: 14506026----T: 14508631 	 St: 80583000 Sz: 4096 	 Sm: 0 	 T: memcpy_h2d(1.758947)
F: 14508631----T: 14516871 	 St: 80584000 Sz: 61440 	 Sm: 0 	 T: memcpy_h2d(5.563808)
F: 14517659----T: 14520264 	 St: 0 Sz: 4096 	 Sm: 0 	 T: device_sync(1.758947)
F: 14517659----T: 14525899 	 St: 0 Sz: 61440 	 Sm: 0 	 T: device_sync(5.563808)
F: 14528504----T: 14531109 	 St: 0 Sz: 4096 	 Sm: 0 	 T: device_sync(1.758947)
F: 14528504----T: 14536744 	 St: 0 Sz: 61440 	 Sm: 0 	 T: device_sync(5.563808)
F: 14539349----T: 14541954 	 St: 0 Sz: 4096 	 Sm: 0 	 T: device_sync(1.758947)
F: 14539349----T: 14555044 	 St: 0 Sz: 126976 	 Sm: 0 	 T: device_sync(10.597569)
F: 14557649----T: 14560254 	 St: 0 Sz: 4096 	 Sm: 0 	 T: device_sync(1.758947)
F: 14557649----T: 14588372 	 St: 0 Sz: 258048 	 Sm: 0 	 T: device_sync(20.744766)
F: 14590977----T: 14593582 	 St: 0 Sz: 4096 	 Sm: 0 	 T: device_sync(1.758947)
F: 14590977----T: 14651813 	 St: 0 Sz: 520192 	 Sm: 0 	 T: device_sync(41.077652)
F: 14654418----T: 14657023 	 St: 0 Sz: 4096 	 Sm: 0 	 T: device_sync(1.758947)
F: 14654418----T: 14775507 	 St: 0 Sz: 1044480 	 Sm: 0 	 T: device_sync(81.761650)
F: 14778112----T: 14780717 	 St: 0 Sz: 4096 	 Sm: 0 	 T: device_sync(1.758947)
F: 14778112----T: 14786352 	 St: 0 Sz: 61440 	 Sm: 0 	 T: device_sync(5.563808)
F: 14788957----T: 14791562 	 St: 0 Sz: 4096 	 Sm: 0 	 T: device_sync(1.758947)
F: 14788957----T: 14797197 	 St: 0 Sz: 61440 	 Sm: 0 	 T: device_sync(5.563808)
F: 14799802----T: 14802407 	 St: 0 Sz: 4096 	 Sm: 0 	 T: device_sync(1.758947)
F: 14799802----T: 14815497 	 St: 0 Sz: 126976 	 Sm: 0 	 T: device_sync(10.597569)
F: 14818102----T: 14820707 	 St: 0 Sz: 4096 	 Sm: 0 	 T: device_sync(1.758947)
F: 14818102----T: 14848825 	 St: 0 Sz: 258048 	 Sm: 0 	 T: device_sync(20.744766)
F: 14851430----T: 14854035 	 St: 0 Sz: 4096 	 Sm: 0 	 T: device_sync(1.758947)
F: 14851430----T: 14912266 	 St: 0 Sz: 520192 	 Sm: 0 	 T: device_sync(41.077652)
F: 14914871----T: 14917476 	 St: 0 Sz: 4096 	 Sm: 0 	 T: device_sync(1.758947)
F: 14914871----T: 14930566 	 St: 0 Sz: 126976 	 Sm: 0 	 T: device_sync(10.597569)
Tot_prefetch_time: 0(cycle), 0.000000(us)
Tot_kernel_exec_time: 5631659(cycle), 3802.605713(us)
Tot_kernel_exec_time_and_fault_time: 41086799(cycle), 27742.605469(us)
Tot_memcpy_h2d_time: 5536537(cycle), 3738.377441(us)
Tot_memcpy_d2h_time: 0(cycle), 0.000000(us)
Tot_memcpy_time: 5536537(cycle), 3738.377441(us)
Tot_devicesync_time: 415512(cycle), 280.561768(us)
Tot_writeback_time: 4002920(cycle), 2702.849365(us)
Tot_rdma_time: 0(cycle), 0.000000(us)
Tot_memcpy_d2h_sync_wb_time: 4418432(cycle), 2983.411133(us)
GPGPU-Sim: *** exit detected ***
