

        *** GPGPU-Sim Simulator Version 3.2.2  [build gpgpu-sim_git-commit-1c1adf09f9d1bccf70ff97255c2b46b40ff0e800_modified_0] ***


GPGPU-Sim PTX: simulation mode 0 (can change with PTX_SIM_MODE_FUNC environment variable:
               1=functional simulation only, 0=detailed performance simulator)
GPGPU-Sim: Configuration options:

-network_mode                           1 # Interconnection network mode
-inter_config_file   config_fermi_islip.icnt # Interconnection network config file
-gpgpu_ptx_use_cuobjdump                    1 # Use cuobjdump to extract ptx and sass from binaries
-gpgpu_experimental_lib_support                    0 # Try to extract code from cuda libraries [Broken because of unknown cudaGetExportTable]
-gpgpu_ptx_convert_to_ptxplus                    0 # Convert SASS (native ISA) to ptxplus and run ptxplus
-gpgpu_ptx_force_max_capability                   20 # Force maximum compute capability
-gpgpu_ptx_inst_debug_to_file                    0 # Dump executed instructions' debug information to file
-gpgpu_ptx_inst_debug_file       inst_debug.txt # Executed instructions' debug output file
-gpgpu_ptx_inst_debug_thread_uid                    1 # Thread UID for executed instructions' debug output
-gpgpu_simd_model                       1 # 1 = post-dominator
-gpgpu_shader_core_pipeline              2048:32 # shader core pipeline config, i.e., {<nthread>:<warpsize>}
-gpgpu_tex_cache:l1  16:128:24,L:R:m:N:L,F:128:4,128:2 # per-shader L1 texture cache  (READ-ONLY) config  {<nsets>:<bsize>:<assoc>,<rep>:<wr>:<alloc>:<wr_alloc>,<mshr>:<N>:<merge>,<mq>:<rf>}
-gpgpu_const_cache:l1 128:64:2,L:R:f:N:L,A:2:64,4 # per-shader L1 constant memory cache  (READ-ONLY) config  {<nsets>:<bsize>:<assoc>,<rep>:<wr>:<alloc>:<wr_alloc>,<mshr>:<N>:<merge>,<mq>} 
-gpgpu_cache:il1     8:128:4,L:R:f:N:L,A:2:48,4 # shader L1 instruction cache config  {<nsets>:<bsize>:<assoc>,<rep>:<wr>:<alloc>:<wr_alloc>,<mshr>:<N>:<merge>,<mq>} 
-gpgpu_cache:dl1     64:128:6,L:L:m:N:H,A:128:8,8 # per-shader L1 data cache config  {<nsets>:<bsize>:<assoc>,<rep>:<wr>:<alloc>:<wr_alloc>,<mshr>:<N>:<merge>,<mq> | none}
-gpgpu_cache:dl1PrefL1                 none # per-shader L1 data cache config  {<nsets>:<bsize>:<assoc>,<rep>:<wr>:<alloc>:<wr_alloc>,<mshr>:<N>:<merge>,<mq> | none}
-gpgpu_cache:dl1PrefShared                 none # per-shader L1 data cache config  {<nsets>:<bsize>:<assoc>,<rep>:<wr>:<alloc>:<wr_alloc>,<mshr>:<N>:<merge>,<mq> | none}
-gmem_skip_L1D                          1 # global memory access skip L1D cache (implements -Xptxas -dlcm=cg, default=no skip)
-gpgpu_perfect_mem                      0 # enable perfect memory mode (no cache miss)
-n_regfile_gating_group                    4 # group of lanes that should be read/written together)
-gpgpu_clock_gated_reg_file                    0 # enable clock gated reg file for power calculations
-gpgpu_clock_gated_lanes                    0 # enable clock gated lanes for power calculations
-gpgpu_shader_registers                65536 # Number of registers per shader core. Limits number of concurrent CTAs. (default 8192)
-gpgpu_shader_cta                      32 # Maximum number of concurrent CTAs in shader (default 8)
-gpgpu_num_cta_barriers                   16 # Maximum number of named barriers per CTA (default 16)
-gpgpu_n_clusters                      28 # number of processing clusters
-gpgpu_n_cores_per_cluster                    1 # number of simd cores per cluster
-gpgpu_n_cluster_ejection_buffer_size                    8 # number of packets in ejection buffer
-gpgpu_n_ldst_response_buffer_size                    2 # number of response packets in ld/st unit ejection buffer
-gpgpu_shmem_size                   16384 # Size of shared memory per shader core (default 16kB)
-gpgpu_shmem_size                   98304 # Size of shared memory per shader core (default 16kB)
-gpgpu_shmem_size_PrefL1                16384 # Size of shared memory per shader core (default 16kB)
-gpgpu_shmem_size_PrefShared                16384 # Size of shared memory per shader core (default 16kB)
-gpgpu_shmem_num_banks                   32 # Number of banks in the shared memory in each shader core (default 16)
-gpgpu_shmem_limited_broadcast                    0 # Limit shared memory to do one broadcast per cycle (default on)
-gpgpu_shmem_warp_parts                    1 # Number of portions a warp is divided into for shared memory bank conflict check 
-gpgpu_warpdistro_shader                   -1 # Specify which shader core to collect the warp size distribution from
-gpgpu_warp_issue_shader                    0 # Specify which shader core to collect the warp issue distribution from
-gpgpu_local_mem_map                    1 # Mapping from local memory space address to simulated GPU physical address space (default = enabled)
-gpgpu_num_reg_banks                   32 # Number of register banks (default = 8)
-gpgpu_reg_bank_use_warp_id                    0 # Use warp ID in mapping registers to banks (default = off)
-gpgpu_operand_collector_num_units_sp                   20 # number of collector units (default = 4)
-gpgpu_operand_collector_num_units_sfu                    4 # number of collector units (default = 4)
-gpgpu_operand_collector_num_units_mem                    8 # number of collector units (default = 2)
-gpgpu_operand_collector_num_units_gen                    0 # number of collector units (default = 0)
-gpgpu_operand_collector_num_in_ports_sp                    4 # number of collector unit in ports (default = 1)
-gpgpu_operand_collector_num_in_ports_sfu                    1 # number of collector unit in ports (default = 1)
-gpgpu_operand_collector_num_in_ports_mem                    1 # number of collector unit in ports (default = 1)
-gpgpu_operand_collector_num_in_ports_gen                    0 # number of collector unit in ports (default = 0)
-gpgpu_operand_collector_num_out_ports_sp                    4 # number of collector unit in ports (default = 1)
-gpgpu_operand_collector_num_out_ports_sfu                    1 # number of collector unit in ports (default = 1)
-gpgpu_operand_collector_num_out_ports_mem                    1 # number of collector unit in ports (default = 1)
-gpgpu_operand_collector_num_out_ports_gen                    0 # number of collector unit in ports (default = 0)
-gpgpu_coalesce_arch                   13 # Coalescing arch (default = 13, anything else is off for now)
-gpgpu_num_sched_per_core                    2 # Number of warp schedulers per core
-gpgpu_max_insn_issue_per_warp                    2 # Max number of instructions that can be issued per warp in one cycle by scheduler
-gpgpu_simt_core_sim_order                    1 # Select the simulation order of cores in a cluster (0=Fix, 1=Round-Robin)
-gpgpu_pipeline_widths        4,1,1,4,1,1,6 # Pipeline widths ID_OC_SP,ID_OC_SFU,ID_OC_MEM,OC_EX_SP,OC_EX_SFU,OC_EX_MEM,EX_WB
-gpgpu_num_sp_units                     4 # Number of SP units (default=1)
-gpgpu_num_sfu_units                    1 # Number of SF units (default=1)
-gpgpu_num_mem_units                    1 # Number if ldst units (default=1) WARNING: not hooked up to anything
-gpgpu_scheduler                      gto # Scheduler configuration: < lrr | gto | two_level_active > If two_level_active:<num_active_warps>:<inner_prioritization>:<outer_prioritization>For complete list of prioritization values see shader.h enum scheduler_prioritization_typeDefault: gto
-gpgpu_concurrent_kernel_sm                    0 # Support concurrent kernels on a SM (default = disabled)
-tlb_size                            4096 # Number of tlb entries per SM.
-gpgpu_dram_scheduler                    1 # 0 = fifo, 1 = FR-FCFS (defaul)
-gpgpu_dram_partition_queues              8:8:8:8 # i2$:$2d:d2$:$2i
-l2_ideal                               0 # Use a ideal L2 cache that always hit
-gpgpu_cache:dl2     64:128:16,L:B:m:W:L,A:1024:1024,4:0,32 # unified banked L2 data cache config  {<nsets>:<bsize>:<assoc>,<rep>:<wr>:<alloc>:<wr_alloc>,<mshr>:<N>:<merge>,<mq>}
-gpgpu_cache:dl2_texture_only                    0 # L2 cache used for texture only
-gpgpu_n_mem                           11 # number of memory modules (e.g. memory controllers) in gpu
-gpgpu_n_sub_partition_per_mchannel                    2 # number of memory subpartition in each memory module
-gpgpu_n_mem_per_ctrlr                    1 # number of memory chips per memory controller
-gpgpu_memlatency_stat                   14 # track and display latency statistics 0x2 enables MC, 0x4 enables queue logs
-gpgpu_frfcfs_dram_sched_queue_size                   64 # 0 = unlimited (default); # entries per chip
-gpgpu_dram_return_queue_size                  116 # 0 = unlimited (default); # entries per chip
-gpgpu_dram_buswidth                    4 # default = 4 bytes (8 bytes per cycle at DDR)
-gpgpu_dram_burst_length                    8 # Burst length of each DRAM request (default = 4 data bus cycle)
-dram_data_command_freq_ratio                    4 # Frequency ratio between DRAM data bus and command bus (default = 2 times, i.e. DDR)
-gpgpu_dram_timing_opt nbk=16:CCD=2:RRD=6:RCD=12:RAS=28:RP=12:RC=40: CL=12:WL=4:CDLR=5:WR=12:nbkgrp=1:CCDL=0:RTPL=0 # DRAM timing parameters = {nbk:tCCD:tRRD:tRCD:tRAS:tRP:tRC:CL:WL:tCDLR:tWR:nbkgrp:tCCDL:tRTPL}
-rop_latency                          120 # ROP queue latency (default 85)
-dram_latency                         100 # DRAM latency (default 30)
-gpgpu_mem_addr_mapping dramid@8;00000000.00000000.00000000.00000000.0000RRRR.RRRRRRRR.RBBBCCCC.BCCSSSSS # mapping memory address to dram model {dramid@<start bit>;<memory address map>}
-gpgpu_mem_addr_test                    0 # run sweep test to check address mapping for aliased address
-gpgpu_mem_address_mask                    1 # 0 = old addressing mask, 1 = new addressing mask, 2 = new add. mask + flipped bank sel and chip sel bits
-gpuwattch_xml_file  gpuwattch_geforcegtx1080ti.xml # GPUWattch XML file
-power_simulation_enabled                    1 # Turn on power simulator (1=On, 0=Off)
-power_per_cycle_dump                    0 # Dump detailed power output each cycle
-power_trace_enabled                    0 # produce a file for the power trace (1=On, 0=Off)
-power_trace_zlevel                     6 # Compression level of the power trace output log (0=no comp, 9=highest)
-steady_power_levels_enabled                    0 # produce a file for the steady power levels (1=On, 0=Off)
-steady_state_definition                  8:4 # allowed deviation:number of samples
-gpgpu_max_cycle                        0 # terminates gpu simulation early (0 = no limit)
-gpgpu_max_insn                         0 # terminates gpu simulation early (0 = no limit)
-gpgpu_max_cta                          0 # terminates gpu simulation early (0 = no limit)
-gpgpu_runtime_stat                   500 # display runtime statistics such as dram utilization {<freq>:<flag>}
-liveness_message_freq                    1 # Minimum number of seconds between simulation liveness messages (0 = always print)
-gpgpu_flush_l1_cache                    0 # Flush L1 cache at the end of each kernel call
-gpgpu_flush_l2_cache                    0 # Flush L2 cache at the end of each kernel call
-gpgpu_deadlock_detect                    0 # Stop the simulation at deadlock (1=on (default), 0=off)
-gpgpu_ptx_instruction_classification                    0 # if enabled will classify ptx instruction types per kernel (Max 255 kernels now)
-gpgpu_ptx_sim_mode                     0 # Select between Performance (default) or Functional simulation (1)
-gpgpu_clock_domains 1481.0:2962.0:1481.0:2750.0 # Clock Domain Frequencies in MhZ {<Core Clock>:<ICNT Clock>:<L2 Clock>:<DRAM Clock>}
-gpgpu_max_concurrent_kernel                    8 # maximum kernels that can run concurrently on GPU
-gpgpu_cflog_interval                    0 # Interval between each snapshot in control flow logger
-visualizer_enabled                     0 # Turn on visualizer output (1=On, 0=Off)
-visualizer_outputfile                 NULL # Specifies the output log file for visualizer
-visualizer_zlevel                      6 # Compression level of the visualizer output log (0=no comp, 9=highest)
-trace_enabled                          0 # Turn on traces
-trace_components                    none # comma seperated list of traces to enable. Complete list found in trace_streams.tup. Default none
-trace_sampling_core                    0 # The core which is printed using CORE_DPRINTF. Default 0
-trace_sampling_memory_partition                   -1 # The memory partition which is printed using MEMPART_DPRINTF. Default -1 (i.e. all)
-gddr_size                      10.9091MB # Size of GDDR in MB/GB.(GLOBAL_HEAP_START, GLOBAL_HEAP_START + gddr_size) would be used for unmanged memory, (GLOBAL_HEAP_START + gddr_size, GLOBAL_HEAP_START + gddr_size*2) would be used for managed memory. 
-page_table_walk_latency                  100 # Average page table walk latency (in core cycle).
-eviction_policy                        2 # Select page eviction policy
-invalidate_clean                       0 # Should directly invalidate clean pages
-reserve_accessed_page_percent                    0 # Percentage of accessed pages reserved from eviction in hope that they will be accessed in next iteration.
-percentage_of_free_page_buffer                    0 # Percentage of free page buffer to trigger the page eviction.
-page_size                            4KB # GDDR page size, only 4KB/2MB avaliable.
-pcie_bandwidth                  16.0GB/s # PCI-e bandwidth per direction, in GB/s.
-enable_dma                             0 # Enable direct access to CPU memory
-multiply_dma_penalty                    2 # Oversubscription Multiplicative Penalty Factor for Adaptive DMA
-migrate_threshold                      8 # Access counter threshold for migrating the page from cpu to gpu
-sim_prof_enable                        1 # Enable gpgpu-sim profiler
-hardware_prefetch                      1 # Select gpgpu-sim hardware prefetcher
-hwprefetch_oversub                     2 # Select gpgpu-sim hardware prefetcher under over-subscription
-page_fault_latency                 66645 # Average fault latency (in core cycle).
-enable_accurate_simulation                    0 # Enable page fault functional simulation.
-enable_ptx_file_line_stats                    1 # Turn on PTX source line statistic profiling. (1 = On)
-ptx_line_stats_filename gpgpu_inst_stats.txt # Output file for PTX source line statistics.
-gpgpu_kernel_launch_latency               222150 # Kernel launch latency in cycles. Default: 0
-gpgpu_cdp_enabled                      0 # Turn on CDP
-save_embedded_ptx                      0 # saves ptx files embedded in binary as <n>.ptx
-keep                                   0 # keep intermediate files created by GPGPU-Sim when interfacing with external programs
-gpgpu_ptx_save_converted_ptxplus                    0 # Saved converted ptxplus to a file
-ptx_opcode_latency_int         4,13,4,5,145 # Opcode latencies for integers <ADD,MAX,MUL,MAD,DIV>Default 1,1,19,25,145
-ptx_opcode_latency_fp          4,13,4,5,39 # Opcode latencies for single precision floating points <ADD,MAX,MUL,MAD,DIV>Default 1,1,1,1,30
-ptx_opcode_latency_dp         8,19,8,8,330 # Opcode latencies for double precision floating points <ADD,MAX,MUL,MAD,DIV>Default 8,8,8,8,335
-ptx_opcode_initiation_int            1,2,2,2,8 # Opcode initiation intervals for integers <ADD,MAX,MUL,MAD,DIV>Default 1,1,4,4,32
-ptx_opcode_initiation_fp            1,2,1,1,4 # Opcode initiation intervals for single precision floating points <ADD,MAX,MUL,MAD,DIV>Default 1,1,1,1,5
-ptx_opcode_initiation_dp          1,2,1,1,130 # Opcode initiation intervals for double precision floating points <ADD,MAX,MUL,MAD,DIV>Default 8,8,8,8,130
-cdp_latency         7200,8000,100,12000,1600 # CDP API latency <cudaStreamCreateWithFlags, cudaGetParameterBufferV2_init_perWarp, cudaGetParameterBufferV2_perKernel, cudaLaunchDeviceV2_init_perWarp, cudaLaunchDevicV2_perKernel>Default 7200,8000,100,12000,1600
DRAM Timing Options:
nbk                                    16 # number of banks
CCD                                     2 # column to column delay
RRD                                     6 # minimal delay between activation of rows in different banks
RCD                                    12 # row to column delay
RAS                                    28 # time needed to activate row
RP                                     12 # time needed to precharge (deactivate) row
RC                                     40 # row cycle time
CDLR                                    5 # switching from write to read (changes tWTR)
WR                                     12 # last data-in to row precharge
CL                                     12 # CAS latency
WL                                      4 # Write latency
nbkgrp                                  1 # number of bank groups
CCDL                                    0 # column to column delay between accesses to different bank groups
RTPL                                    0 # read to precharge delay between accesses to different bank groups
Total number of memory sub partition = 22
addr_dec_mask[CHIP]  = 0000000000000000 	high:64 low:0
addr_dec_mask[BK]    = 0000000000007080 	high:15 low:7
addr_dec_mask[ROW]   = 000000000fff8000 	high:28 low:15
addr_dec_mask[COL]   = 0000000000000f7f 	high:12 low:0
addr_dec_mask[BURST] = 000000000000001f 	high:5 low:0
sub_partition_id_mask = 0000000000000080
GPGPU-Sim uArch: clock freqs: 1481000000.000000:2962000000.000000:1481000000.000000:2750000000.000000
GPGPU-Sim uArch: clock periods: 0.00000000067521944632:0.00000000033760972316:0.00000000067521944632:0.00000000036363636364
*** Initializing Memory Statistics ***
GPGPU-Sim uArch: interconnect node map (shaderID+MemID to icntID)
GPGPU-Sim uArch: Memory nodes ID start from index: 28
GPGPU-Sim uArch:    0   1   2   3   4   5   6
GPGPU-Sim uArch:    7   8   9  10  11  12  13
GPGPU-Sim uArch:   14  15  16  17  18  19  20
GPGPU-Sim uArch:   21  22  23  24  25  26  27
GPGPU-Sim uArch:   28  29  30  31  32  33  34
GPGPU-Sim uArch:   35  36  37  38  39  40  41
GPGPU-Sim uArch:   42  43  44  45  46  47  48
GPGPU-Sim uArch:   49
GPGPU-Sim uArch: interconnect node reverse map (icntID to shaderID+MemID)
GPGPU-Sim uArch: Memory nodes start from ID: 28
GPGPU-Sim uArch:    0   1   2   3   4   5   6
GPGPU-Sim uArch:    7   8   9  10  11  12  13
GPGPU-Sim uArch:   14  15  16  17  18  19  20
GPGPU-Sim uArch:   21  22  23  24  25  26  27
GPGPU-Sim uArch:   28  29  30  31  32  33  34
GPGPU-Sim uArch:   35  36  37  38  39  40  41
GPGPU-Sim uArch:   42  43  44  45  46  47  48
GPGPU-Sim uArch:   49
503228a84c5acce04febe5a767a6866d  /root/gpgpu-sim_UVMSmart/benchmarks/Managed/hotspot/hotspot
GPGPU-Sim uArch: performance model initialization complete.
GPGPU-Sim PTX: __cudaRegisterFatBinary, fat_cubin_handle = 1, filename=default
self exe links to: /root/gpgpu-sim_UVMSmart/benchmarks/Managed/hotspot/hotspot
Running md5sum using "md5sum /root/gpgpu-sim_UVMSmart/benchmarks/Managed/hotspot/hotspot "
Parsing file _cuobjdump_complete_output_RiPGaE
######### cuobjdump parser ########
## Adding new section ELF
Adding arch: sm_20
Adding identifier: default
## Adding new section ELF
Adding arch: sm_20
Adding identifier: default
## Adding new section PTX
Adding ptx filename: _cuobjdump_1.ptx
Adding arch: sm_20
Adding identifier: default
Done parsing!!!
GPGPU-Sim PTX: __cudaRegisterFunction _Z14calculate_tempiPfS_S_iiiiffffff : hostFun 0x0x401ae2, fat_cubin_handle = 1
GPGPU-Sim PTX: allocating shared region for "_Z14calculate_tempiPfS_S_iiiiffffff$__cuda_local_var_16165_39_non_const_temp_on_cuda" from 0x0 to 0x400 (shared memory space)
GPGPU-Sim PTX: allocating shared region for "_Z14calculate_tempiPfS_S_iiiiffffff$__cuda_local_var_16166_39_non_const_power_on_cuda" from 0x400 to 0x800 (shared memory space)
GPGPU-Sim PTX: allocating shared region for "_Z14calculate_tempiPfS_S_iiiiffffff$__cuda_local_var_16167_39_non_const_temp_t" from 0x800 to 0xc00 (shared memory space)
GPGPU-Sim PTX: instruction assembly for function '_Z14calculate_tempiPfS_S_iiiiffffff'...   done.
GPGPU-Sim PTX: finding reconvergence points for '_Z14calculate_tempiPfS_S_iiiiffffff'...
GPGPU-Sim PTX: Finding dominators for '_Z14calculate_tempiPfS_S_iiiiffffff'...
GPGPU-Sim PTX: Finding immediate dominators for '_Z14calculate_tempiPfS_S_iiiiffffff'...
GPGPU-Sim PTX: Finding postdominators for '_Z14calculate_tempiPfS_S_iiiiffffff'...
GPGPU-Sim PTX: Finding immediate postdominators for '_Z14calculate_tempiPfS_S_iiiiffffff'...
GPGPU-Sim PTX: pre-decoding instructions for '_Z14calculate_tempiPfS_S_iiiiffffff'...
GPGPU-Sim PTX: reconvergence points for _Z14calculate_tempiPfS_S_iiiiffffff...
GPGPU-Sim PTX:  1 (potential) branch divergence @  PC=0x118 (_1.ptx:82) @!%p7 bra BB0_2;
GPGPU-Sim PTX:    immediate post dominator      @  PC=0x1b8 (_1.ptx:106) bar.sync 0;
GPGPU-Sim PTX:  2 (potential) branch divergence @  PC=0x120 (_1.ptx:83) bra.uni BB0_1;
GPGPU-Sim PTX:    immediate post dominator      @  PC=0x128 (_1.ptx:86) mad.lo.s32 %r27, %r1, %r10, %r2;
GPGPU-Sim PTX:  3 (potential) branch divergence @  PC=0x1c8 (_1.ptx:108) @%p8 bra BB0_11;
GPGPU-Sim PTX:    immediate post dominator      @  PC=0x5b0 (_1.ptx:247) and.b16 %rs7, %rs8, 255;
GPGPU-Sim PTX:  4 (potential) branch divergence @  PC=0x338 (_1.ptx:157) @!%p15 bra BB0_7;
GPGPU-Sim PTX:    immediate post dominator      @  PC=0x538 (_1.ptx:226) bar.sync 0;
GPGPU-Sim PTX:  5 (potential) branch divergence @  PC=0x340 (_1.ptx:158) bra.uni BB0_5;
GPGPU-Sim PTX:    immediate post dominator      @  PC=0x348 (_1.ptx:161) setp.gt.s32%p16, %r23, %r6;
GPGPU-Sim PTX:  6 (potential) branch divergence @  PC=0x3d0 (_1.ptx:178) @%p28 bra BB0_7;
GPGPU-Sim PTX:    immediate post dominator      @  PC=0x538 (_1.ptx:226) bar.sync 0;
GPGPU-Sim PTX:  7 (potential) branch divergence @  PC=0x548 (_1.ptx:228) @%p31 bra BB0_11;
GPGPU-Sim PTX:    immediate post dominator      @  PC=0x5b0 (_1.ptx:247) and.b16 %rs7, %rs8, 255;
GPGPU-Sim PTX:  8 (potential) branch divergence @  PC=0x558 (_1.ptx:231) @%p32 bra BB0_10;
GPGPU-Sim PTX:    immediate post dominator      @  PC=0x590 (_1.ptx:241) bar.sync 0;
GPGPU-Sim PTX:  9 (potential) branch divergence @  PC=0x5a8 (_1.ptx:244) @%p33 bra BB0_4;
GPGPU-Sim PTX:    immediate post dominator      @  PC=0x5b0 (_1.ptx:247) and.b16 %rs7, %rs8, 255;
GPGPU-Sim PTX: 10 (potential) branch divergence @  PC=0x5c0 (_1.ptx:249) @%p34 bra BB0_13;
GPGPU-Sim PTX:    immediate post dominator      @  PC=0x620 (_1.ptx:264) ret;
GPGPU-Sim PTX: ... end of reconvergence points for _Z14calculate_tempiPfS_S_iiiiffffff
GPGPU-Sim PTX: ... done pre-decoding instructions for '_Z14calculate_tempiPfS_S_iiiiffffff'.
GPGPU-Sim PTX: finished parsing EMBEDDED .ptx file _1.ptx
Adding _cuobjdump_1.ptx with cubin handle 1
GPGPU-Sim PTX: extracting embedded .ptx to temporary file "_ptx_GG3Jn1"
Running: cat _ptx_GG3Jn1 | sed 's/.version 1.5/.version 1.4/' | sed 's/, texmode_independent//' | sed 's/\(\.extern \.const\[1\] .b8 \w\+\)\[\]/\1\[1\]/' | sed 's/const\[.\]/const\[0\]/g' > _ptx2_JnAOAo
GPGPU-Sim PTX: generating ptxinfo using "$CUDA_INSTALL_PATH/bin/ptxas --gpu-name=sm_20 -v _ptx2_JnAOAo --output-file  /dev/null 2> _ptx_GG3Jn1info"
GPGPU-Sim PTX: Kernel '_Z14calculate_tempiPfS_S_iiiiffffff' : regs=34, lmem=0, smem=3072, cmem=120
GPGPU-Sim PTX: removing ptxinfo using "rm -f _ptx_GG3Jn1 _ptx2_JnAOAo _ptx_GG3Jn1info"
GPGPU-Sim PTX: loading globals with explicit initializers... 
GPGPU-Sim PTX: finished loading globals (0 bytes total).
GPGPU-Sim PTX: loading constants with explicit initializers...  done.
WG size of kernel = 16 X 16
pyramidHeight: 2
gridSize: [1024, 1024]
border:[2, 2]
blockGrid:[86, 86]
targetBlock:[12, 12]
Start computing the transient temperature

GPGPU-Sim PTX: cudaLaunch for 0x0x401ae2 (mode=performance simulation) on stream 0
GPGPU-Sim PTX: pushing kernel '_Z14calculate_tempiPfS_S_iiiiffffff' to stream 0, gridDim= (86,86,1) blockDim = (16,16,1) 
GPGPU-Sim uArch: Shader 1 bind to kernel 1 '_Z14calculate_tempiPfS_S_iiiiffffff'
GPGPU-Sim uArch: CTA/core = 7, limited by: regs
GPGPU-Sim uArch: Shader 2 bind to kernel 1 '_Z14calculate_tempiPfS_S_iiiiffffff'
GPGPU-Sim uArch: Shader 3 bind to kernel 1 '_Z14calculate_tempiPfS_S_iiiiffffff'
GPGPU-Sim uArch: Shader 4 bind to kernel 1 '_Z14calculate_tempiPfS_S_iiiiffffff'
GPGPU-Sim uArch: Shader 5 bind to kernel 1 '_Z14calculate_tempiPfS_S_iiiiffffff'
GPGPU-Sim uArch: Shader 6 bind to kernel 1 '_Z14calculate_tempiPfS_S_iiiiffffff'
GPGPU-Sim uArch: Shader 7 bind to kernel 1 '_Z14calculate_tempiPfS_S_iiiiffffff'
GPGPU-Sim uArch: Shader 8 bind to kernel 1 '_Z14calculate_tempiPfS_S_iiiiffffff'
GPGPU-Sim uArch: Shader 9 bind to kernel 1 '_Z14calculate_tempiPfS_S_iiiiffffff'
GPGPU-Sim uArch: Shader 10 bind to kernel 1 '_Z14calculate_tempiPfS_S_iiiiffffff'
GPGPU-Sim uArch: Shader 11 bind to kernel 1 '_Z14calculate_tempiPfS_S_iiiiffffff'
GPGPU-Sim uArch: Shader 12 bind to kernel 1 '_Z14calculate_tempiPfS_S_iiiiffffff'
GPGPU-Sim uArch: Shader 13 bind to kernel 1 '_Z14calculate_tempiPfS_S_iiiiffffff'
GPGPU-Sim uArch: Shader 14 bind to kernel 1 '_Z14calculate_tempiPfS_S_iiiiffffff'
GPGPU-Sim uArch: Shader 15 bind to kernel 1 '_Z14calculate_tempiPfS_S_iiiiffffff'
GPGPU-Sim uArch: Shader 16 bind to kernel 1 '_Z14calculate_tempiPfS_S_iiiiffffff'
GPGPU-Sim uArch: Shader 17 bind to kernel 1 '_Z14calculate_tempiPfS_S_iiiiffffff'
GPGPU-Sim uArch: Shader 18 bind to kernel 1 '_Z14calculate_tempiPfS_S_iiiiffffff'
GPGPU-Sim uArch: Shader 19 bind to kernel 1 '_Z14calculate_tempiPfS_S_iiiiffffff'
GPGPU-Sim uArch: Shader 20 bind to kernel 1 '_Z14calculate_tempiPfS_S_iiiiffffff'
GPGPU-Sim uArch: Shader 21 bind to kernel 1 '_Z14calculate_tempiPfS_S_iiiiffffff'
GPGPU-Sim uArch: Shader 22 bind to kernel 1 '_Z14calculate_tempiPfS_S_iiiiffffff'
GPGPU-Sim uArch: Shader 23 bind to kernel 1 '_Z14calculate_tempiPfS_S_iiiiffffff'
GPGPU-Sim uArch: Shader 24 bind to kernel 1 '_Z14calculate_tempiPfS_S_iiiiffffff'
GPGPU-Sim uArch: Shader 25 bind to kernel 1 '_Z14calculate_tempiPfS_S_iiiiffffff'
GPGPU-Sim uArch: Shader 26 bind to kernel 1 '_Z14calculate_tempiPfS_S_iiiiffffff'
GPGPU-Sim uArch: Shader 27 bind to kernel 1 '_Z14calculate_tempiPfS_S_iiiiffffff'
GPGPU-Sim uArch: Shader 0 bind to kernel 1 '_Z14calculate_tempiPfS_S_iiiiffffff'
GPGPU-Sim uArch: Shader 1 bind to kernel 1 '_Z14calculate_tempiPfS_S_iiiiffffff'
GPGPU-Sim uArch: Shader 2 bind to kernel 1 '_Z14calculate_tempiPfS_S_iiiiffffff'
GPGPU-Sim uArch: Shader 3 bind to kernel 1 '_Z14calculate_tempiPfS_S_iiiiffffff'
GPGPU-Sim uArch: Shader 4 bind to kernel 1 '_Z14calculate_tempiPfS_S_iiiiffffff'
GPGPU-Sim uArch: Shader 7 bind to kernel 1 '_Z14calculate_tempiPfS_S_iiiiffffff'
GPGPU-Sim uArch: Shader 13 bind to kernel 1 '_Z14calculate_tempiPfS_S_iiiiffffff'
GPGPU-Sim uArch: Shader 15 bind to kernel 1 '_Z14calculate_tempiPfS_S_iiiiffffff'
GPGPU-Sim uArch: Shader 17 bind to kernel 1 '_Z14calculate_tempiPfS_S_iiiiffffff'
GPGPU-Sim uArch: Shader 18 bind to kernel 1 '_Z14calculate_tempiPfS_S_iiiiffffff'
GPGPU-Sim uArch: Shader 21 bind to kernel 1 '_Z14calculate_tempiPfS_S_iiiiffffff'
GPGPU-Sim uArch: Shader 24 bind to kernel 1 '_Z14calculate_tempiPfS_S_iiiiffffff'
GPGPU-Sim uArch: Shader 25 bind to kernel 1 '_Z14calculate_tempiPfS_S_iiiiffffff'
GPGPU-Sim uArch: Shader 27 bind to kernel 1 '_Z14calculate_tempiPfS_S_iiiiffffff'
GPGPU-Sim uArch: Shader 0 bind to kernel 1 '_Z14calculate_tempiPfS_S_iiiiffffff'
GPGPU-Sim uArch: Shader 14 bind to kernel 1 '_Z14calculate_tempiPfS_S_iiiiffffff'
GPGPU-Sim uArch: Shader 15 bind to kernel 1 '_Z14calculate_tempiPfS_S_iiiiffffff'
GPGPU-Sim uArch: Shader 18 bind to kernel 1 '_Z14calculate_tempiPfS_S_iiiiffffff'
GPGPU-Sim uArch: Shader 22 bind to kernel 1 '_Z14calculate_tempiPfS_S_iiiiffffff'
GPGPU-Sim uArch: Shader 23 bind to kernel 1 '_Z14calculate_tempiPfS_S_iiiiffffff'
GPGPU-Sim uArch: Shader 27 bind to kernel 1 '_Z14calculate_tempiPfS_S_iiiiffffff'
GPGPU-Sim uArch: Shader 4 bind to kernel 1 '_Z14calculate_tempiPfS_S_iiiiffffff'
GPGPU-Sim uArch: Shader 8 bind to kernel 1 '_Z14calculate_tempiPfS_S_iiiiffffff'
GPGPU-Sim uArch: Shader 11 bind to kernel 1 '_Z14calculate_tempiPfS_S_iiiiffffff'
GPGPU-Sim uArch: Shader 12 bind to kernel 1 '_Z14calculate_tempiPfS_S_iiiiffffff'
GPGPU-Sim uArch: Shader 13 bind to kernel 1 '_Z14calculate_tempiPfS_S_iiiiffffff'
GPGPU-Sim uArch: Shader 15 bind to kernel 1 '_Z14calculate_tempiPfS_S_iiiiffffff'
GPGPU-Sim uArch: Shader 20 bind to kernel 1 '_Z14calculate_tempiPfS_S_iiiiffffff'
GPGPU-Sim uArch: Shader 24 bind to kernel 1 '_Z14calculate_tempiPfS_S_iiiiffffff'
GPGPU-Sim uArch: Shader 4 bind to kernel 1 '_Z14calculate_tempiPfS_S_iiiiffffff'
GPGPU-Sim uArch: Shader 6 bind to kernel 1 '_Z14calculate_tempiPfS_S_iiiiffffff'
GPGPU-Sim uArch: Shader 12 bind to kernel 1 '_Z14calculate_tempiPfS_S_iiiiffffff'
GPGPU-Sim uArch: Shader 13 bind to kernel 1 '_Z14calculate_tempiPfS_S_iiiiffffff'
GPGPU-Sim uArch: Shader 22 bind to kernel 1 '_Z14calculate_tempiPfS_S_iiiiffffff'
GPGPU-Sim uArch: Shader 24 bind to kernel 1 '_Z14calculate_tempiPfS_S_iiiiffffff'
GPGPU-Sim uArch: Shader 9 bind to kernel 1 '_Z14calculate_tempiPfS_S_iiiiffffff'
GPGPU-Sim uArch: Shader 10 bind to kernel 1 '_Z14calculate_tempiPfS_S_iiiiffffff'
GPGPU-Sim uArch: Shader 11 bind to kernel 1 '_Z14calculate_tempiPfS_S_iiiiffffff'
GPGPU-Sim uArch: Shader 12 bind to kernel 1 '_Z14calculate_tempiPfS_S_iiiiffffff'
GPGPU-Sim uArch: Shader 13 bind to kernel 1 '_Z14calculate_tempiPfS_S_iiiiffffff'
GPGPU-Sim uArch: Shader 15 bind to kernel 1 '_Z14calculate_tempiPfS_S_iiiiffffff'
GPGPU-Sim uArch: Shader 16 bind to kernel 1 '_Z14calculate_tempiPfS_S_iiiiffffff'
GPGPU-Sim uArch: Shader 18 bind to kernel 1 '_Z14calculate_tempiPfS_S_iiiiffffff'
GPGPU-Sim uArch: Shader 19 bind to kernel 1 '_Z14calculate_tempiPfS_S_iiiiffffff'
GPGPU-Sim uArch: Shader 20 bind to kernel 1 '_Z14calculate_tempiPfS_S_iiiiffffff'
GPGPU-Sim uArch: Shader 22 bind to kernel 1 '_Z14calculate_tempiPfS_S_iiiiffffff'
GPGPU-Sim uArch: Shader 24 bind to kernel 1 '_Z14calculate_tempiPfS_S_iiiiffffff'
GPGPU-Sim uArch: Shader 26 bind to kernel 1 '_Z14calculate_tempiPfS_S_iiiiffffff'
GPGPU-Sim uArch: Shader 27 bind to kernel 1 '_Z14calculate_tempiPfS_S_iiiiffffff'
GPGPU-Sim uArch: Shader 0 bind to kernel 1 '_Z14calculate_tempiPfS_S_iiiiffffff'
GPGPU-Sim uArch: Shader 1 bind to kernel 1 '_Z14calculate_tempiPfS_S_iiiiffffff'
GPGPU-Sim uArch: Shader 4 bind to kernel 1 '_Z14calculate_tempiPfS_S_iiiiffffff'
GPGPU-Sim uArch: Shader 6 bind to kernel 1 '_Z14calculate_tempiPfS_S_iiiiffffff'
GPGPU-Sim uArch: Shader 7 bind to kernel 1 '_Z14calculate_tempiPfS_S_iiiiffffff'
GPGPU-Sim uArch: Shader 9 bind to kernel 1 '_Z14calculate_tempiPfS_S_iiiiffffff'
GPGPU-Sim uArch: Shader 14 bind to kernel 1 '_Z14calculate_tempiPfS_S_iiiiffffff'
GPGPU-Sim uArch: Shader 17 bind to kernel 1 '_Z14calculate_tempiPfS_S_iiiiffffff'
GPGPU-Sim uArch: Shader 21 bind to kernel 1 '_Z14calculate_tempiPfS_S_iiiiffffff'
GPGPU-Sim uArch: Shader 23 bind to kernel 1 '_Z14calculate_tempiPfS_S_iiiiffffff'
GPGPU-Sim uArch: Shader 25 bind to kernel 1 '_Z14calculate_tempiPfS_S_iiiiffffff'
GPGPU-Sim uArch: Shader 3 bind to kernel 1 '_Z14calculate_tempiPfS_S_iiiiffffff'
GPGPU-Sim uArch: Shader 5 bind to kernel 1 '_Z14calculate_tempiPfS_S_iiiiffffff'
GPGPU-Sim uArch: Shader 7 bind to kernel 1 '_Z14calculate_tempiPfS_S_iiiiffffff'
GPGPU-Sim uArch: Shader 22 bind to kernel 1 '_Z14calculate_tempiPfS_S_iiiiffffff'
GPGPU-Sim uArch: Shader 27 bind to kernel 1 '_Z14calculate_tempiPfS_S_iiiiffffff'
GPGPU-Sim uArch: Shader 20 bind to kernel 1 '_Z14calculate_tempiPfS_S_iiiiffffff'
GPGPU-Sim uArch: Shader 17 bind to kernel 1 '_Z14calculate_tempiPfS_S_iiiiffffff'
GPGPU-Sim uArch: Shader 18 bind to kernel 1 '_Z14calculate_tempiPfS_S_iiiiffffff'
GPGPU-Sim uArch: Shader 19 bind to kernel 1 '_Z14calculate_tempiPfS_S_iiiiffffff'
GPGPU-Sim uArch: Shader 20 bind to kernel 1 '_Z14calculate_tempiPfS_S_iiiiffffff'
GPGPU-Sim uArch: Shader 21 bind to kernel 1 '_Z14calculate_tempiPfS_S_iiiiffffff'
GPGPU-Sim uArch: Shader 22 bind to kernel 1 '_Z14calculate_tempiPfS_S_iiiiffffff'
GPGPU-Sim uArch: Shader 23 bind to kernel 1 '_Z14calculate_tempiPfS_S_iiiiffffff'
GPGPU-Sim uArch: Shader 0 bind to kernel 1 '_Z14calculate_tempiPfS_S_iiiiffffff'
GPGPU-Sim uArch: Shader 1 bind to kernel 1 '_Z14calculate_tempiPfS_S_iiiiffffff'
GPGPU-Sim uArch: Shader 11 bind to kernel 1 '_Z14calculate_tempiPfS_S_iiiiffffff'
GPGPU-Sim uArch: Shader 14 bind to kernel 1 '_Z14calculate_tempiPfS_S_iiiiffffff'
GPGPU-Sim uArch: Shader 15 bind to kernel 1 '_Z14calculate_tempiPfS_S_iiiiffffff'
GPGPU-Sim uArch: Shader 16 bind to kernel 1 '_Z14calculate_tempiPfS_S_iiiiffffff'
GPGPU-Sim uArch: Shader 18 bind to kernel 1 '_Z14calculate_tempiPfS_S_iiiiffffff'
GPGPU-Sim uArch: Shader 20 bind to kernel 1 '_Z14calculate_tempiPfS_S_iiiiffffff'
GPGPU-Sim uArch: Shader 24 bind to kernel 1 '_Z14calculate_tempiPfS_S_iiiiffffff'
GPGPU-Sim uArch: Shader 25 bind to kernel 1 '_Z14calculate_tempiPfS_S_iiiiffffff'
GPGPU-Sim uArch: Shader 26 bind to kernel 1 '_Z14calculate_tempiPfS_S_iiiiffffff'
GPGPU-Sim uArch: Shader 0 bind to kernel 1 '_Z14calculate_tempiPfS_S_iiiiffffff'
GPGPU-Sim uArch: Shader 1 bind to kernel 1 '_Z14calculate_tempiPfS_S_iiiiffffff'
GPGPU-Sim uArch: Shader 2 bind to kernel 1 '_Z14calculate_tempiPfS_S_iiiiffffff'
GPGPU-Sim uArch: Shader 3 bind to kernel 1 '_Z14calculate_tempiPfS_S_iiiiffffff'
GPGPU-Sim uArch: Shader 4 bind to kernel 1 '_Z14calculate_tempiPfS_S_iiiiffffff'
GPGPU-Sim uArch: Shader 5 bind to kernel 1 '_Z14calculate_tempiPfS_S_iiiiffffff'
GPGPU-Sim uArch: Shader 6 bind to kernel 1 '_Z14calculate_tempiPfS_S_iiiiffffff'
GPGPU-Sim uArch: Shader 7 bind to kernel 1 '_Z14calculate_tempiPfS_S_iiiiffffff'
GPGPU-Sim uArch: Shader 8 bind to kernel 1 '_Z14calculate_tempiPfS_S_iiiiffffff'
GPGPU-Sim uArch: Shader 9 bind to kernel 1 '_Z14calculate_tempiPfS_S_iiiiffffff'
GPGPU-Sim uArch: Shader 11 bind to kernel 1 '_Z14calculate_tempiPfS_S_iiiiffffff'
GPGPU-Sim uArch: Shader 2 bind to kernel 1 '_Z14calculate_tempiPfS_S_iiiiffffff'
GPGPU-Sim uArch: Shader 3 bind to kernel 1 '_Z14calculate_tempiPfS_S_iiiiffffff'
GPGPU-Sim uArch: Shader 6 bind to kernel 1 '_Z14calculate_tempiPfS_S_iiiiffffff'
GPGPU-Sim uArch: Shader 7 bind to kernel 1 '_Z14calculate_tempiPfS_S_iiiiffffff'
GPGPU-Sim uArch: Shader 8 bind to kernel 1 '_Z14calculate_tempiPfS_S_iiiiffffff'
GPGPU-Sim uArch: Shader 9 bind to kernel 1 '_Z14calculate_tempiPfS_S_iiiiffffff'
GPGPU-Sim uArch: Shader 10 bind to kernel 1 '_Z14calculate_tempiPfS_S_iiiiffffff'
GPGPU-Sim uArch: Shader 11 bind to kernel 1 '_Z14calculate_tempiPfS_S_iiiiffffff'
GPGPU-Sim uArch: Shader 13 bind to kernel 1 '_Z14calculate_tempiPfS_S_iiiiffffff'
GPGPU-Sim uArch: Shader 15 bind to kernel 1 '_Z14calculate_tempiPfS_S_iiiiffffff'
GPGPU-Sim uArch: Shader 16 bind to kernel 1 '_Z14calculate_tempiPfS_S_iiiiffffff'
GPGPU-Sim uArch: Shader 17 bind to kernel 1 '_Z14calculate_tempiPfS_S_iiiiffffff'
GPGPU-Sim uArch: Shader 18 bind to kernel 1 '_Z14calculate_tempiPfS_S_iiiiffffff'
GPGPU-Sim uArch: Shader 27 bind to kernel 1 '_Z14calculate_tempiPfS_S_iiiiffffff'
Destroy streams for kernel 1: size 0
kernel_name = _Z14calculate_tempiPfS_S_iiiiffffff 
kernel_launch_uid = 1 
gpu_sim_cycle = 1835901
gpu_sim_insn = 415466464
gpu_ipc =     226.3011
gpu_tot_sim_cycle = 2058051
gpu_tot_sim_insn = 415466464
gpu_tot_ipc =     201.8737
gpu_tot_issued_cta = 7396
max_total_param_size = 0
gpu_stall_dramfull = 74913
gpu_stall_icnt2sh    = 642602
partiton_reqs_in_parallel = 40314909
partiton_reqs_in_parallel_total    = 0
partiton_level_parallism =      21.9592
partiton_level_parallism_total  =      19.5889
partiton_reqs_in_parallel_util = 40314909
partiton_reqs_in_parallel_util_total    = 0
gpu_sim_cycle_parition_util = 1835277
gpu_tot_sim_cycle_parition_util    = 0
partiton_level_parallism_util =      21.9667
partiton_level_parallism_util_total  =      21.9667
partiton_replys_in_parallel = 456444
partiton_replys_in_parallel_total    = 0
L2_BW  =      23.5653 GB/Sec
L2_BW_total  =      21.0216 GB/Sec
gpu_total_sim_rate=136891

========= Core cache stats =========
L1I_cache:
	L1I_total_cache_accesses = 7740000
	L1I_total_cache_misses = 8688
	L1I_total_cache_miss_rate = 0.0011
	L1I_total_cache_pending_hits = 0
	L1I_total_cache_reservation_fails = 6846
L1D_cache:
	L1D_cache_core[0]: Access = 0, Miss = 0, Miss_rate = -nan, Pending_hits = 0, Reservation_fails = 0
	L1D_cache_core[1]: Access = 0, Miss = 0, Miss_rate = -nan, Pending_hits = 0, Reservation_fails = 0
	L1D_cache_core[2]: Access = 0, Miss = 0, Miss_rate = -nan, Pending_hits = 0, Reservation_fails = 0
	L1D_cache_core[3]: Access = 0, Miss = 0, Miss_rate = -nan, Pending_hits = 0, Reservation_fails = 0
	L1D_cache_core[4]: Access = 0, Miss = 0, Miss_rate = -nan, Pending_hits = 0, Reservation_fails = 0
	L1D_cache_core[5]: Access = 0, Miss = 0, Miss_rate = -nan, Pending_hits = 0, Reservation_fails = 0
	L1D_cache_core[6]: Access = 0, Miss = 0, Miss_rate = -nan, Pending_hits = 0, Reservation_fails = 0
	L1D_cache_core[7]: Access = 0, Miss = 0, Miss_rate = -nan, Pending_hits = 0, Reservation_fails = 0
	L1D_cache_core[8]: Access = 0, Miss = 0, Miss_rate = -nan, Pending_hits = 0, Reservation_fails = 0
	L1D_cache_core[9]: Access = 0, Miss = 0, Miss_rate = -nan, Pending_hits = 0, Reservation_fails = 0
	L1D_cache_core[10]: Access = 0, Miss = 0, Miss_rate = -nan, Pending_hits = 0, Reservation_fails = 0
	L1D_cache_core[11]: Access = 0, Miss = 0, Miss_rate = -nan, Pending_hits = 0, Reservation_fails = 0
	L1D_cache_core[12]: Access = 0, Miss = 0, Miss_rate = -nan, Pending_hits = 0, Reservation_fails = 0
	L1D_cache_core[13]: Access = 0, Miss = 0, Miss_rate = -nan, Pending_hits = 0, Reservation_fails = 0
	L1D_cache_core[14]: Access = 0, Miss = 0, Miss_rate = -nan, Pending_hits = 0, Reservation_fails = 0
	L1D_cache_core[15]: Access = 0, Miss = 0, Miss_rate = -nan, Pending_hits = 0, Reservation_fails = 0
	L1D_cache_core[16]: Access = 0, Miss = 0, Miss_rate = -nan, Pending_hits = 0, Reservation_fails = 0
	L1D_cache_core[17]: Access = 0, Miss = 0, Miss_rate = -nan, Pending_hits = 0, Reservation_fails = 0
	L1D_cache_core[18]: Access = 0, Miss = 0, Miss_rate = -nan, Pending_hits = 0, Reservation_fails = 0
	L1D_cache_core[19]: Access = 0, Miss = 0, Miss_rate = -nan, Pending_hits = 0, Reservation_fails = 0
	L1D_cache_core[20]: Access = 0, Miss = 0, Miss_rate = -nan, Pending_hits = 0, Reservation_fails = 0
	L1D_cache_core[21]: Access = 0, Miss = 0, Miss_rate = -nan, Pending_hits = 0, Reservation_fails = 0
	L1D_cache_core[22]: Access = 0, Miss = 0, Miss_rate = -nan, Pending_hits = 0, Reservation_fails = 0
	L1D_cache_core[23]: Access = 0, Miss = 0, Miss_rate = -nan, Pending_hits = 0, Reservation_fails = 0
	L1D_cache_core[24]: Access = 0, Miss = 0, Miss_rate = -nan, Pending_hits = 0, Reservation_fails = 0
	L1D_cache_core[25]: Access = 0, Miss = 0, Miss_rate = -nan, Pending_hits = 0, Reservation_fails = 0
	L1D_cache_core[26]: Access = 0, Miss = 0, Miss_rate = -nan, Pending_hits = 0, Reservation_fails = 0
	L1D_cache_core[27]: Access = 0, Miss = 0, Miss_rate = -nan, Pending_hits = 0, Reservation_fails = 0
	L1D_total_cache_accesses = 0
	L1D_total_cache_misses = 0
	L1D_total_cache_pending_hits = 0
	L1D_total_cache_reservation_fails = 0
	L1D_cache_data_port_util = 0.000
	L1D_cache_fill_port_util = 0.000
L1C_cache:
	L1C_total_cache_accesses = 769184
	L1C_total_cache_misses = 2195
	L1C_total_cache_miss_rate = 0.0029
	L1C_total_cache_pending_hits = 0
	L1C_total_cache_reservation_fails = 4886
L1T_cache:
	L1T_total_cache_accesses = 0
	L1T_total_cache_misses = 0
	L1T_total_cache_pending_hits = 0
	L1T_total_cache_reservation_fails = 0

Total_core_cache_stats:
	Total_core_cache_stats_breakdown[GLOBAL_ACC_R][HIT] = 0
	Total_core_cache_stats_breakdown[GLOBAL_ACC_R][HIT_RESERVED] = 0
	Total_core_cache_stats_breakdown[GLOBAL_ACC_R][MISS] = 0
	Total_core_cache_stats_breakdown[GLOBAL_ACC_R][RESERVATION_FAIL] = 0
	Total_core_cache_stats_breakdown[LOCAL_ACC_R][HIT] = 0
	Total_core_cache_stats_breakdown[LOCAL_ACC_R][HIT_RESERVED] = 0
	Total_core_cache_stats_breakdown[LOCAL_ACC_R][MISS] = 0
	Total_core_cache_stats_breakdown[LOCAL_ACC_R][RESERVATION_FAIL] = 0
	Total_core_cache_stats_breakdown[CONST_ACC_R][HIT] = 766989
	Total_core_cache_stats_breakdown[CONST_ACC_R][HIT_RESERVED] = 0
	Total_core_cache_stats_breakdown[CONST_ACC_R][MISS] = 2195
	Total_core_cache_stats_breakdown[CONST_ACC_R][RESERVATION_FAIL] = 4886
	Total_core_cache_stats_breakdown[TEXTURE_ACC_R][HIT] = 0
	Total_core_cache_stats_breakdown[TEXTURE_ACC_R][HIT_RESERVED] = 0
	Total_core_cache_stats_breakdown[TEXTURE_ACC_R][MISS] = 0
	Total_core_cache_stats_breakdown[TEXTURE_ACC_R][RESERVATION_FAIL] = 0
	Total_core_cache_stats_breakdown[GLOBAL_ACC_W][HIT] = 0
	Total_core_cache_stats_breakdown[GLOBAL_ACC_W][HIT_RESERVED] = 0
	Total_core_cache_stats_breakdown[GLOBAL_ACC_W][MISS] = 0
	Total_core_cache_stats_breakdown[GLOBAL_ACC_W][RESERVATION_FAIL] = 0
	Total_core_cache_stats_breakdown[LOCAL_ACC_W][HIT] = 0
	Total_core_cache_stats_breakdown[LOCAL_ACC_W][HIT_RESERVED] = 0
	Total_core_cache_stats_breakdown[LOCAL_ACC_W][MISS] = 0
	Total_core_cache_stats_breakdown[LOCAL_ACC_W][RESERVATION_FAIL] = 0
	Total_core_cache_stats_breakdown[L1_WRBK_ACC][HIT] = 0
	Total_core_cache_stats_breakdown[L1_WRBK_ACC][HIT_RESERVED] = 0
	Total_core_cache_stats_breakdown[L1_WRBK_ACC][MISS] = 0
	Total_core_cache_stats_breakdown[L1_WRBK_ACC][RESERVATION_FAIL] = 0
	Total_core_cache_stats_breakdown[L2_WRBK_ACC][HIT] = 0
	Total_core_cache_stats_breakdown[L2_WRBK_ACC][HIT_RESERVED] = 0
	Total_core_cache_stats_breakdown[L2_WRBK_ACC][MISS] = 0
	Total_core_cache_stats_breakdown[L2_WRBK_ACC][RESERVATION_FAIL] = 0
	Total_core_cache_stats_breakdown[INST_ACC_R][HIT] = 7731312
	Total_core_cache_stats_breakdown[INST_ACC_R][HIT_RESERVED] = 0
	Total_core_cache_stats_breakdown[INST_ACC_R][MISS] = 8688
	Total_core_cache_stats_breakdown[INST_ACC_R][RESERVATION_FAIL] = 6846
	Total_core_cache_stats_breakdown[L1_WR_ALLOC_R][HIT] = 0
	Total_core_cache_stats_breakdown[L1_WR_ALLOC_R][HIT_RESERVED] = 0
	Total_core_cache_stats_breakdown[L1_WR_ALLOC_R][MISS] = 0
	Total_core_cache_stats_breakdown[L1_WR_ALLOC_R][RESERVATION_FAIL] = 0
	Total_core_cache_stats_breakdown[L2_WR_ALLOC_R][HIT] = 0
	Total_core_cache_stats_breakdown[L2_WR_ALLOC_R][HIT_RESERVED] = 0
	Total_core_cache_stats_breakdown[L2_WR_ALLOC_R][MISS] = 0
	Total_core_cache_stats_breakdown[L2_WR_ALLOC_R][RESERVATION_FAIL] = 0
	Total_core_cache_stats_breakdown[CONST_ACC_R][TOTAL_ACCESS] = 769184
	Total_core_cache_stats_breakdown[INST_ACC_R][TOTAL_ACCESS] = 7740000
Shader 0 warp_id issue ditsribution:
warp_id:
0, 1, 2, 3, 4, 5, 6, 7, 8, 9, 10, 11, 12, 13, 14, 15, 16, 17, 18, 19, 20, 21, 22, 23, 24, 25, 26, 27, 28, 29, 30, 31, 32, 33, 34, 35, 36, 37, 38, 39, 40, 41, 42, 43, 44, 45, 46, 47, 48, 49, 50, 51, 52, 53, 54, 55, 
distro:
10228, 12898, 12921, 12878, 12919, 12873, 12914, 10336, 9978, 12580, 12607, 12427, 12459, 12416, 12454, 9994, 9733, 12269, 12299, 12113, 12153, 12112, 12147, 9751, 9301, 11636, 11657, 11486, 11512, 11482, 11514, 9248, 9298, 11630, 11657, 11615, 11649, 11610, 11649, 9313, 9058, 11314, 11348, 11171, 11202, 11166, 11194, 8999, 8803, 11008, 11025, 10990, 11020, 10977, 11017, 8824, 
gpgpu_n_tot_thrd_icount = 485326208
gpgpu_n_tot_w_icount = 15166444
gpgpu_n_stall_shd_mem = 421014
gpgpu_n_mem_read_local = 0
gpgpu_n_mem_write_local = 0
gpgpu_n_mem_read_global = 346456
gpgpu_n_mem_write_global = 109568
gpgpu_n_mem_texture = 0
gpgpu_n_mem_const = 56
gpgpu_n_load_insn  = 3720992
gpgpu_n_store_insn = 1048576
gpgpu_n_shmem_insn = 24940324
gpgpu_n_tex_insn = 0
gpgpu_n_const_mem_insn = 0
gpgpu_n_param_mem_insn = 24613888
gpgpu_n_shmem_bkconflict = 0
gpgpu_n_cache_bkconflict = 0
gpgpu_n_intrawarp_mshr_merge = 0
gpgpu_n_cmem_portconflict = 4886
gpgpu_stall_shd_mem[c_mem][bk_conf] = 4886
gpgpu_stall_shd_mem[c_mem][mshr_rc] = 0
gpgpu_stall_shd_mem[c_mem][icnt_rc] = 0
gpgpu_stall_shd_mem[c_mem][data_port_stall] = 0
gpgpu_stall_shd_mem[t_mem][mshr_rc] = 0
gpgpu_stall_shd_mem[t_mem][icnt_rc] = 0
gpgpu_stall_shd_mem[t_mem][data_port_stall] = 0
gpgpu_stall_shd_mem[s_mem][bk_conf] = 0
gpgpu_stall_shd_mem[gl_mem][bk_conf] = 0
gpgpu_stall_shd_mem[gl_mem][coal_stall] = 324235
gpgpu_stall_shd_mem[gl_mem][data_port_stall] = 0
gpgpu_stall_shd_mem[g_mem_ld][mshr_rc] = 0
gpgpu_stall_shd_mem[g_mem_ld][icnt_rc] = 91893
gpgpu_stall_shd_mem[g_mem_ld][wb_icnt_rc] = 0
gpgpu_stall_shd_mem[g_mem_ld][wb_rsrv_fail] = 0
gpgpu_stall_shd_mem[g_mem_st][mshr_rc] = 0
gpgpu_stall_shd_mem[g_mem_st][icnt_rc] = 0
gpgpu_stall_shd_mem[g_mem_st][wb_icnt_rc] = 0
gpgpu_stall_shd_mem[g_mem_st][wb_rsrv_fail] = 0
gpgpu_stall_shd_mem[l_mem_ld][mshr_rc] = 0
gpgpu_stall_shd_mem[l_mem_ld][icnt_rc] = 0
gpgpu_stall_shd_mem[l_mem_ld][wb_icnt_rc] = 0
gpgpu_stall_shd_mem[l_mem_ld][wb_rsrv_fail] = 0
gpgpu_stall_shd_mem[l_mem_st][mshr_rc] = 0
gpgpu_stall_shd_mem[l_mem_st][icnt_rc] = 0
gpgpu_stall_shd_mem[l_mem_ld][wb_icnt_rc] = 0
gpgpu_stall_shd_mem[l_mem_ld][wb_rsrv_fail] = 0
gpu_reg_bank_conflict_stalls = 0
Warp Occupancy Distribution:
Stall:540369	W0_Idle:43871161	W0_Scoreboard:45688632	W1:0	W2:0	W3:0	W4:0	W5:8500	W6:0	W7:0	W8:28160	W9:0	W10:25600	W11:0	W12:12958	W13:8500	W14:714000	W15:0	W16:0	W17:0	W18:0	W19:0	W20:0	W21:0	W22:0	W23:0	W24:3517792	W25:0	W26:25600	W27:0	W28:3287550	W29:0	W30:0	W31:0	W32:7537784
traffic_breakdown_coretomem[CONST_ACC_R] = 448 {8:56,}
traffic_breakdown_coretomem[GLOBAL_ACC_R] = 2771648 {8:346456,}
traffic_breakdown_coretomem[GLOBAL_ACC_W] = 7856128 {40:44032,72:44032,136:21504,}
traffic_breakdown_coretomem[INST_ACC_R] = 2912 {8:364,}
traffic_breakdown_memtocore[CONST_ACC_R] = 4032 {72:56,}
traffic_breakdown_memtocore[GLOBAL_ACC_R] = 28785856 {40:114576,72:114576,136:117304,}
traffic_breakdown_memtocore[GLOBAL_ACC_W] = 876544 {8:109568,}
traffic_breakdown_memtocore[INST_ACC_R] = 49504 {136:364,}
maxmrqlatency = 540 
maxdqlatency = 0 
maxmflatency = 243881 
averagemflatency = 4863 
max_icnt2mem_latency = 243557 
max_icnt2sh_latency = 2058050 
mrq_lat_table:103466 	5565 	5558 	11406 	13300 	13224 	13002 	17665 	12121 	9 	0 	0 	0 	0 	0 	0 	0 	0 	0 	0 	0 	0 	0 	0 	0 	0 	0 	0 	0 	0 	0 	0 	
dq_lat_table:0 	0 	0 	0 	0 	0 	0 	0 	0 	0 	0 	0 	0 	0 	0 	0 	0 	0 	0 	0 	0 	0 	0 	0 	0 	0 	0 	0 	0 	0 	0 	0 	
mf_lat_table:0 	0 	0 	0 	0 	0 	0 	257162 	138761 	2705 	256 	3391 	1618 	16492 	11365 	18466 	5817 	47 	0 	0 	0 	0 	0 	0 	0 	0 	0 	0 	0 	0 	0 	0 	
icnt2mem_lat_table:0 	0 	223847 	40810 	5049 	2219 	115093 	11072 	877 	29 	705 	2938 	2013 	16210 	11653 	18065 	5817 	47 	0 	0 	0 	0 	0 	0 	
icnt2sh_lat_table:0 	0 	99192 	156095 	84988 	6175 	62 	0 	0 	0 	0 	0 	0 	0 	0 	0 	0 	0 	12840 	14659 	82069 	0 	0 	0 	
mf_lat_pw_table:0 	0 	0 	0 	0 	0 	0 	321 	86 	3 	4 	21 	10 	39 	25 	30 	7 	0 	0 	0 	0 	0 	0 	0 	0 	0 	0 	0 	0 	0 	0 	0 	
maximum concurrent accesses to same row:
dram[0]:        69        70        69        70        66        67        69        70        69        70        69        70        68        66        69        70 
dram[1]:        69        70        69        70        66        65        69        70        69        70        69        70        68        65        69        70 
dram[2]:        69        70        69        70        68        70        69        70        69        70        69        70        66        66        69        70 
dram[3]:        69        70        69        70        67        70        69        70        69        70        69        70        64        66        69        70 
dram[4]:        69        70        69        70        65        66        69        70        69        70        69        70        66        65        69        70 
dram[5]:        69        70        69        70        63        66        69        70        69        70        69        70        67        69        69        70 
dram[6]:        69        70        69        70        68        65        69        70        69        70        69        70        69        66        69        70 
dram[7]:        69        70        69        70        68        70        69        70        69        70        69        70        66        66        69        70 
dram[8]:        69        70        69        70        68        70        69        70        69        70        69        70        65        66        69        70 
dram[9]:        69        70        69        70        67        66        69        70        69        70        69        70        64        66        69        70 
dram[10]:        69        70        69        70        64        67        69        70        69        70        69        70        67        66        69        70 
maximum service time to same row:
dram[0]:    259027    259104    270219    270458    256635    256501    383132    382868    377430    377334    376792    248610    254732    254730    253451    253530 
dram[1]:    259165    259484    270416    270421    269012    268817    382867    382868    377548    377494    248539    248913    254718    254714    253460    253304 
dram[2]:    259128    259478    270241    270201    267830    267988    382809    382836    377556    377419    248618    248343    254726    254725    252889    252533 
dram[3]:    259171    259143    270205    270118    256386    256693    382830    382778    377310    377428    248263    248208    254601    254637    253443    253455 
dram[4]:    259383    259619    270071    270408    256542    256699    383038    382870    377542    377553    248148    248217    254669    254654    253457    253541 
dram[5]:    259027    259103    270313    270318    256636    256483    382865    382844    377452    377398    248157    251804    254732    254731    253463    253521 
dram[6]:    259198    259520    270241    270235    268662    268617    383231    382882    377430    377400    376319    245760    254721    254718    253457    253305 
dram[7]:    257646    259492    270180    270091    268761    268730    382790    382849    377446    377268    245675    245665    254725    254727    252939    252512 
dram[8]:    259159    259186    270072    269985    256532    256576    382863    382787    377329    377370    245566    245576    254600    254624    253433    253499 
dram[9]:    259365    259470    270070    270416    256425    256563    383040    382863    377284    377301    245579    245743    254549    254648    253456    253536 
dram[10]:    264397    263758    270322    270292    256823    256448    382836    382872    377262    377270    245712    249367    254675    254664    253472    253529 
average row accesses per activate:
dram[0]: 12.867470 12.795180 10.630000 10.103773 10.257143 11.000000 10.449541 11.155340 10.366973 10.444445 11.210000  9.911505 11.272727 11.127451 12.282609 11.731958 
dram[1]: 14.671233 13.518988 10.896907 11.473118 11.912087 11.020202 10.745283 10.811320 10.912621 11.690722 10.922330 11.178218 10.798077 11.608248 13.975308 13.302325 
dram[2]: 13.831169 14.280000 11.234042 11.319149 11.229167 11.648936 11.107843 13.079545 10.883495 11.530612 12.885057 12.129032 12.611111 12.271739 14.701299 14.111111 
dram[3]: 15.347826 15.492754 11.200000 11.659341 11.966666 11.648936 12.544444 12.965909 11.340000 12.875000 13.345238 13.317647 12.852273 13.139535 13.746988 14.392406 
dram[4]: 13.582278 12.666667  9.724771  9.953271 11.717391 13.289157 12.340659 12.159575 11.310000 11.340000 12.362638 12.428572 12.595506 12.909091 14.615385 13.011364 
dram[5]: 12.136364 12.325582  9.870370  9.879630  9.798165 10.419047 10.903846 10.849056 10.742857  9.877193 10.714286 11.250000 11.956989 10.884615 11.340000 11.380000 
dram[6]: 14.039474 12.045455 12.022727 12.147727 11.216495  9.601769 11.147058 11.274509 10.218182 11.068627 12.395604 11.250000 11.099010 11.540816 12.577778 12.445652 
dram[7]: 14.266666 14.157895 13.212500 12.642858 10.413462 11.010000 12.577778 12.766666 11.059406 11.833333 13.069767 12.588889 11.158416 11.383839 13.602409 13.771085 
dram[8]: 14.213333 13.259259 11.073684 11.692307 11.081633 11.010000 12.304348 12.688889 11.068627 11.098040 13.937500 14.137500 11.039216 11.978724 14.037037 13.926829 
dram[9]: 13.506330 13.844156  9.887851  9.788991 10.394231 11.402061 12.417583 12.965909 11.147058 12.074468 12.816092 12.730337 10.980392 12.588889 13.559524 12.755555 
dram[10]: 13.048780 12.939024  9.934580 10.238095 10.848485 11.371134 12.336957 11.653061 11.058824 10.376146 12.021276 11.551021 12.433333 12.139785 11.802083 11.793815 
average row locality = 195316/16495 = 11.840921
number of total memory accesses made:
dram[0]:         0         0         0         0         0         0         0         0         0         0         0         0         0         0         0         0 
dram[1]:         0         0         0         0         0         0         0         0         0         0         0         0         0         0         0         0 
dram[2]:         0         0         0         0         0         0         0         0         0         0         0         0         0         0         0         0 
dram[3]:         0         0         0         0         0         0         0         0         0         0         0         0         0         0         0         0 
dram[4]:         0         0         0         0         0         0         0         0         0         0         0         0         0         0         0         0 
dram[5]:         0         0         0         0         0         0         0         0         0         0         0         0         0         0         0         0 
dram[6]:         0         0         0         0         0         0         0         0         0         0         0         0         0         0         0         0 
dram[7]:         0         0         0         0         0         0         0         0         0         0         0         0         0         0         0         0 
dram[8]:         0         0         0         0         0         0         0         0         0         0         0         0         0         0         0         0 
dram[9]:         0         0         0         0         0         0         0         0         0         0         0         0         0         0         0         0 
dram[10]:         0         0         0         0         0         0         0         0         0         0         0         0         0         0         0         0 
total accesses: 0
min_bank_accesses = 0!
min_chip_accesses = 0!
number of total read accesses:
dram[0]:       561       560       560       560       560       560       560       560       560       560       548       548       560       560       560       560 
dram[1]:       560       560       560       560       560       560       560       560       560       560       549       549       560       560       560       560 
dram[2]:       560       560       560       560       560       560       560       560       560       560       549       549       560       560       560       560 
dram[3]:       560       560       560       560       560       560       560       560       560       560       549       549       560       560       560       560 
dram[4]:       560       560       560       560       560       560       560       560       560       560       549       549       560       560       561       561 
dram[5]:       560       560       560       560       560       560       560       560       560       560       548       548       560       560       561       561 
dram[6]:       560       560       560       560       560       560       560       560       560       560       548       548       560       560       561       561 
dram[7]:       560       560       560       560       560       560       560       560       560       560       548       548       560       560       561       561 
dram[8]:       560       560       560       560       560       560       560       560       560       560       548       548       560       560       561       561 
dram[9]:       560       560       560       560       560       560       560       560       560       560       548       548       560       560       561       561 
dram[10]:       560       560       560       560       560       560       560       560       560       560       548       548       560       560       561       560 
total reads: 98318
bank skew: 561/548 = 1.02
chip skew: 8940/8937 = 1.00
number of total write accesses:
dram[0]:       507       502       503       511       517       529       579       589       570       568       573       572       556       575       570       578 
dram[1]:       511       508       497       507       524       531       579       586       564       574       576       580       563       566       572       584 
dram[2]:       505       511       496       504       518       535       573       591       561       570       572       579       575       569       572       583 
dram[3]:       499       509       504       501       517       535       569       581       574       573       572       583       571       570       581       577 
dram[4]:       513       504       500       505       518       543       563       583       571       574       576       582       561       576       579       584 
dram[5]:       508       500       506       507       508       534       574       590       568       566       577       577       552       572       573       577 
dram[6]:       507       500       498       509       528       525       577       590       564       569       580       577       561       571       571       584 
dram[7]:       510       516       497       502       523       541       572       589       557       576       576       585       567       567       568       582 
dram[8]:       506       514       492       504       526       541       572       582       569       572       567       583       566       566       576       581 
dram[9]:       507       506       498       507       521       546       570       581       577       575       567       585       560       573       578       587 
dram[10]:       510       501       503       515       514       543       575       582       568       571       582       584       559       569       572       584 
total reads: 96998
bank skew: 591/492 = 1.20
chip skew: 8838/8789 = 1.01
average mf latency per bank:
dram[0]:      11383     11457      9367      9522     12674     12379     12852     13026      7286      7164      9654      9562     14260     14188     12644     12343
dram[1]:      11596     11613      9598      9577     12647     12680     13071     13131      7383      7223      9686      9551     14311     14462     12707     12409
dram[2]:      11605     11543      9749      9703     12483     12647     13192     13073      7287      6918      9694      9499     14543     14716     12670     12390
dram[3]:      11749     11571      9493      9496     12735     12336     13049     12866      7318      7115      9590      9458     14467     14674     12683     12347
dram[4]:      11682     11540      9117      8851     13118     13112     12876     12625      7320      7076      9301      8964     14666     14351     12346     12086
dram[5]:      12146     12364      8768      8843     13344     13151     12470     12514      7489      7383      8802      8786     14639     14488     11762     11517
dram[6]:      12038     11903      9023      9098     13500     13375     12713     12801      7599      7430     10066     10339     14433     14616     12176     11910
dram[7]:      11838     11796      9304      9327     13346     13538     13451     13580      7477      7019     10390     10232     14874     15000     12276     12009
dram[8]:      11914     11799      9449      9370     13197     12991     13524     13257      7111      6834     10409     10154     14913     15141     12270     11979
dram[9]:      11808     11507      9142      8941     12827     12391     12809     12549      7161      6931     10485     10358     15001     14797     12726     12515
dram[10]:      11183     11128      8928      8885     12813     12825     12622     12733      7191      7013     10494     10388     14688     14301     12502     12099
maximum mf latency per bank:
dram[0]:     129237    129100     62991     62975    124157    124372    123758    123719    123046    122891    130124    130129    129822    129838    243814    243834
dram[1]:     129151    129065     63200     63100    124378    124504    123748    123755    122986    123019    130123    130135    129950    130093    243800    243829
dram[2]:     129243    129071     63049     63011    124474    124367    123755    123764    123015    122995    130125    130132    129994    130152    243808    243831
dram[3]:     129066    128866     62995     63011    124353    124372    123760    123737    123069    123072    130133    130135    129945    130069    243807    243881
dram[4]:     128979    128986     62888     62894    124313    124414    123744    123755    123051    123004    130130    130134    129849    129903    243809    129597
dram[5]:     129183    129084     62944     62957    124214    124473    123562    123729    123015    122923    130127    130124    129833    129854    129626    129729
dram[6]:     129205    129141     63208     63113    124374    124506    123731    123756    123043    123003    130136    130152    129943    130021    129802    129816
dram[7]:     129252    129083     63333     63321    124405    124448    123783    124042    122982    123015    130130    130133    129945    130040    129722    129672
dram[8]:     129045    128868     63293     63177    124533    124349    123813    123828    123011    123071    130125    130163    129991    130071    129763    129718
dram[9]:     128962    128995     63137     63137    124404    124306    123724    123734    123050    122978    130136    130138    129810    129926    243764    243774
dram[10]:     123660    123637     63116     63013    124194    124305    123741    123799    123024    122964    130139    130142    129853    129877    243797    243810
Memory Partition 0: 
Cache L2_bank_000:
MSHR contents

Cache L2_bank_001:
MSHR contents

In Dram Latency Queue (total = 0): 
DRAM[0]: 16 bks, busW=4 BL=8 CL=12, tRRD=2 tCCD=6, tRCD=12 tRAS=28 tRP=12 tRC=40
n_cmd=3408998 n_nop=3349676 n_act=1609 n_pre=1593 n_req=17736 n_rd=35748 n_write=20372 bw_util=0.03292
n_activity=192110 dram_eff=0.5842
bk0: 2244a 3388637i bk1: 2240a 3387129i bk2: 2240a 3387670i bk3: 2240a 3386504i bk4: 2240a 3387629i bk5: 2240a 3385290i bk6: 2240a 3385461i bk7: 2240a 3384948i bk8: 2240a 3386430i bk9: 2240a 3385124i bk10: 2192a 3386365i bk11: 2192a 3385742i bk12: 2240a 3387486i bk13: 2240a 3385586i bk14: 2240a 3386680i bk15: 2240a 3385008i 
dram_util_bins: 0 0 0 0 0 0 0 0 0 0
dram_eff_bins: 0 0 0 0 0 0 0 0 0 0
mrqq: max=64 avg=0.475302
Memory Partition 1: 
Cache L2_bank_002:
MSHR contents

Cache L2_bank_003:
MSHR contents

In Dram Latency Queue (total = 0): 
DRAM[1]: 16 bks, busW=4 BL=8 CL=12, tRRD=2 tCCD=6, tRCD=12 tRAS=28 tRP=12 tRC=40
n_cmd=3408998 n_nop=3349866 n_act=1516 n_pre=1500 n_req=17760 n_rd=35752 n_write=20364 bw_util=0.03292
n_activity=191433 dram_eff=0.5863
bk0: 2240a 3388821i bk1: 2240a 3387150i bk2: 2240a 3388445i bk3: 2240a 3387168i bk4: 2240a 3387787i bk5: 2240a 3386711i bk6: 2240a 3385956i bk7: 2240a 3385615i bk8: 2240a 3386516i bk9: 2240a 3385891i bk10: 2196a 3386899i bk11: 2196a 3385541i bk12: 2240a 3386946i bk13: 2240a 3385779i bk14: 2240a 3386542i bk15: 2240a 3384768i 
dram_util_bins: 0 0 0 0 0 0 0 0 0 0
dram_eff_bins: 0 0 0 0 0 0 0 0 0 0
mrqq: max=64 avg=0.472305
Memory Partition 2: 
Cache L2_bank_004:
MSHR contents

Cache L2_bank_005:
MSHR contents

In Dram Latency Queue (total = 0): 
DRAM[2]: 16 bks, busW=4 BL=8 CL=12, tRRD=2 tCCD=6, tRCD=12 tRAS=28 tRP=12 tRC=40
n_cmd=3408998 n_nop=3349972 n_act=1441 n_pre=1425 n_req=17752 n_rd=35752 n_write=20408 bw_util=0.03295
n_activity=190677 dram_eff=0.5891
bk0: 2240a 3389173i bk1: 2240a 3387026i bk2: 2240a 3388470i bk3: 2240a 3387252i bk4: 2240a 3387293i bk5: 2240a 3386580i bk6: 2240a 3386602i bk7: 2240a 3385996i bk8: 2240a 3387312i bk9: 2240a 3386582i bk10: 2196a 3387158i bk11: 2196a 3385919i bk12: 2240a 3386675i bk13: 2240a 3384771i bk14: 2240a 3386539i bk15: 2240a 3386012i 
dram_util_bins: 0 0 0 0 0 0 0 0 0 0
dram_eff_bins: 0 0 0 0 0 0 0 0 0 0
mrqq: max=64 avg=0.467089
Memory Partition 3: 
Cache L2_bank_006:
MSHR contents

Cache L2_bank_007:
MSHR contents

In Dram Latency Queue (total = 0): 
DRAM[3]: 16 bks, busW=4 BL=8 CL=12, tRRD=2 tCCD=6, tRCD=12 tRAS=28 tRP=12 tRC=40
n_cmd=3408998 n_nop=3350081 n_act=1379 n_pre=1363 n_req=17754 n_rd=35752 n_write=20423 bw_util=0.03296
n_activity=191575 dram_eff=0.5865
bk0: 2240a 3389163i bk1: 2240a 3387855i bk2: 2240a 3388537i bk3: 2240a 3387637i bk4: 2240a 3388051i bk5: 2240a 3387132i bk6: 2240a 3386575i bk7: 2240a 3385918i bk8: 2240a 3386718i bk9: 2240a 3385707i bk10: 2196a 3387411i bk11: 2196a 3386679i bk12: 2240a 3386637i bk13: 2240a 3385453i bk14: 2240a 3387038i bk15: 2240a 3385652i 
dram_util_bins: 0 0 0 0 0 0 0 0 0 0
dram_eff_bins: 0 0 0 0 0 0 0 0 0 0
mrqq: max=64 avg=0.47163
Memory Partition 4: 
Cache L2_bank_008:
MSHR contents

Cache L2_bank_009:
MSHR contents

In Dram Latency Queue (total = 0): 
DRAM[4]: 16 bks, busW=4 BL=8 CL=12, tRRD=2 tCCD=6, tRCD=12 tRAS=28 tRP=12 tRC=40
n_cmd=3408998 n_nop=3349894 n_act=1464 n_pre=1448 n_req=17772 n_rd=35760 n_write=20432 bw_util=0.03297
n_activity=190922 dram_eff=0.5886
bk0: 2240a 3387736i bk1: 2240a 3386583i bk2: 2240a 3388350i bk3: 2240a 3387372i bk4: 2240a 3388386i bk5: 2240a 3386475i bk6: 2240a 3387211i bk7: 2240a 3385339i bk8: 2240a 3387061i bk9: 2240a 3386400i bk10: 2196a 3386451i bk11: 2196a 3385165i bk12: 2240a 3387673i bk13: 2240a 3386015i bk14: 2244a 3386236i bk15: 2244a 3385010i 
dram_util_bins: 0 0 0 0 0 0 0 0 0 0
dram_eff_bins: 0 0 0 0 0 0 0 0 0 0
mrqq: max=64 avg=0.475746
Memory Partition 5: 
Cache L2_bank_010:
MSHR contents

Cache L2_bank_011:
MSHR contents

In Dram Latency Queue (total = 0): 
DRAM[5]: 16 bks, busW=4 BL=8 CL=12, tRRD=2 tCCD=6, tRCD=12 tRAS=28 tRP=12 tRC=40
n_cmd=3408998 n_nop=3349610 n_act=1635 n_pre=1619 n_req=17727 n_rd=35752 n_write=20382 bw_util=0.03293
n_activity=193154 dram_eff=0.5812
bk0: 2240a 3388025i bk1: 2240a 3387322i bk2: 2240a 3388016i bk3: 2240a 3387286i bk4: 2240a 3387028i bk5: 2240a 3385832i bk6: 2240a 3386635i bk7: 2240a 3385440i bk8: 2240a 3386607i bk9: 2240a 3384693i bk10: 2192a 3387074i bk11: 2192a 3386313i bk12: 2240a 3387641i bk13: 2240a 3385023i bk14: 2244a 3386075i bk15: 2244a 3384962i 
dram_util_bins: 0 0 0 0 0 0 0 0 0 0
dram_eff_bins: 0 0 0 0 0 0 0 0 0 0
mrqq: max=64 avg=0.46784
Memory Partition 6: 
Cache L2_bank_012:
MSHR contents

Cache L2_bank_013:
MSHR contents

In Dram Latency Queue (total = 0): 
DRAM[6]: 16 bks, busW=4 BL=8 CL=12, tRRD=2 tCCD=6, tRCD=12 tRAS=28 tRP=12 tRC=40
n_cmd=3408998 n_nop=3349829 n_act=1538 n_pre=1522 n_req=17749 n_rd=35752 n_write=20357 bw_util=0.03292
n_activity=190461 dram_eff=0.5892
bk0: 2240a 3388465i bk1: 2240a 3387883i bk2: 2240a 3389071i bk3: 2240a 3387873i bk4: 2240a 3387039i bk5: 2240a 3384884i bk6: 2240a 3385710i bk7: 2240a 3385096i bk8: 2240a 3386617i bk9: 2240a 3385436i bk10: 2192a 3386685i bk11: 2192a 3386320i bk12: 2240a 3386563i bk13: 2240a 3385056i bk14: 2244a 3386143i bk15: 2244a 3384850i 
dram_util_bins: 0 0 0 0 0 0 0 0 0 0
dram_eff_bins: 0 0 0 0 0 0 0 0 0 0
mrqq: max=64 avg=0.470757
Memory Partition 7: 
Cache L2_bank_014:
MSHR contents

Cache L2_bank_015:
MSHR contents

In Dram Latency Queue (total = 0): 
DRAM[7]: 16 bks, busW=4 BL=8 CL=12, tRRD=2 tCCD=6, tRCD=12 tRAS=28 tRP=12 tRC=40
n_cmd=3408998 n_nop=3350005 n_act=1438 n_pre=1422 n_req=17766 n_rd=35752 n_write=20381 bw_util=0.03293
n_activity=191165 dram_eff=0.5873
bk0: 2240a 3389217i bk1: 2240a 3387414i bk2: 2240a 3389066i bk3: 2240a 3388065i bk4: 2240a 3387233i bk5: 2240a 3386137i bk6: 2240a 3386715i bk7: 2240a 3385947i bk8: 2240a 3386591i bk9: 2240a 3385876i bk10: 2192a 3386997i bk11: 2192a 3386124i bk12: 2240a 3386671i bk13: 2240a 3385386i bk14: 2244a 3386516i bk15: 2244a 3385118i 
dram_util_bins: 0 0 0 0 0 0 0 0 0 0
dram_eff_bins: 0 0 0 0 0 0 0 0 0 0
mrqq: max=64 avg=0.474149
Memory Partition 8: 
Cache L2_bank_016:
MSHR contents

Cache L2_bank_017:
MSHR contents

In Dram Latency Queue (total = 0): 
DRAM[8]: 16 bks, busW=4 BL=8 CL=12, tRRD=2 tCCD=6, tRCD=12 tRAS=28 tRP=12 tRC=40
n_cmd=3408998 n_nop=3349934 n_act=1445 n_pre=1429 n_req=17755 n_rd=35752 n_write=20438 bw_util=0.03297
n_activity=191671 dram_eff=0.5863
bk0: 2240a 3389010i bk1: 2240a 3387340i bk2: 2240a 3388724i bk3: 2240a 3387862i bk4: 2240a 3387761i bk5: 2240a 3386245i bk6: 2240a 3386729i bk7: 2240a 3386442i bk8: 2240a 3386337i bk9: 2240a 3385855i bk10: 2192a 3387646i bk11: 2192a 3386418i bk12: 2240a 3386516i bk13: 2240a 3386407i bk14: 2244a 3386433i bk15: 2244a 3385481i 
dram_util_bins: 0 0 0 0 0 0 0 0 0 0
dram_eff_bins: 0 0 0 0 0 0 0 0 0 0
mrqq: max=64 avg=0.471042
Memory Partition 9: 
Cache L2_bank_018:
MSHR contents

Cache L2_bank_019:
MSHR contents

In Dram Latency Queue (total = 0): 
DRAM[9]: 16 bks, busW=4 BL=8 CL=12, tRRD=2 tCCD=6, tRCD=12 tRAS=28 tRP=12 tRC=40
n_cmd=3408998 n_nop=3349838 n_act=1490 n_pre=1474 n_req=17776 n_rd=35752 n_write=20444 bw_util=0.03297
n_activity=191855 dram_eff=0.5858
bk0: 2240a 3388662i bk1: 2240a 3388336i bk2: 2240a 3388396i bk3: 2240a 3387784i bk4: 2240a 3387167i bk5: 2240a 3385993i bk6: 2240a 3386798i bk7: 2240a 3386373i bk8: 2240a 3386756i bk9: 2240a 3386410i bk10: 2192a 3387889i bk11: 2192a 3385788i bk12: 2240a 3386734i bk13: 2240a 3386075i bk14: 2244a 3386073i bk15: 2244a 3384903i 
dram_util_bins: 0 0 0 0 0 0 0 0 0 0
dram_eff_bins: 0 0 0 0 0 0 0 0 0 0
mrqq: max=64 avg=0.473946
Memory Partition 10: 
Cache L2_bank_020:
MSHR contents

Cache L2_bank_021:
MSHR contents

In Dram Latency Queue (total = 0): 
DRAM[10]: 16 bks, busW=4 BL=8 CL=12, tRRD=2 tCCD=6, tRCD=12 tRAS=28 tRP=12 tRC=40
n_cmd=3408998 n_nop=3349716 n_act=1541 n_pre=1525 n_req=17769 n_rd=35748 n_write=20468 bw_util=0.03298
n_activity=191953 dram_eff=0.5857
bk0: 2240a 3388026i bk1: 2240a 3386967i bk2: 2240a 3387771i bk3: 2240a 3386339i bk4: 2240a 3387785i bk5: 2240a 3385271i bk6: 2240a 3386783i bk7: 2240a 3385137i bk8: 2240a 3386970i bk9: 2240a 3385356i bk10: 2192a 3386649i bk11: 2192a 3386150i bk12: 2240a 3387615i bk13: 2240a 3385484i bk14: 2244a 3385821i bk15: 2240a 3384884i 
dram_util_bins: 0 0 0 0 0 0 0 0 0 0
dram_eff_bins: 0 0 0 0 0 0 0 0 0 0
mrqq: max=64 avg=0.477139

========= L2 cache stats =========
L2_cache_bank[0]: Access = 20620, Miss = 4469, Miss_rate = 0.217, Pending_hits = 7760, Reservation_fails = 7
L2_cache_bank[1]: Access = 20905, Miss = 4468, Miss_rate = 0.214, Pending_hits = 7917, Reservation_fails = 9
L2_cache_bank[2]: Access = 20570, Miss = 4469, Miss_rate = 0.217, Pending_hits = 7747, Reservation_fails = 5
L2_cache_bank[3]: Access = 20910, Miss = 4469, Miss_rate = 0.214, Pending_hits = 7930, Reservation_fails = 5
L2_cache_bank[4]: Access = 20562, Miss = 4469, Miss_rate = 0.217, Pending_hits = 7650, Reservation_fails = 11
L2_cache_bank[5]: Access = 20901, Miss = 4469, Miss_rate = 0.214, Pending_hits = 7940, Reservation_fails = 8
L2_cache_bank[6]: Access = 20556, Miss = 4469, Miss_rate = 0.217, Pending_hits = 7779, Reservation_fails = 7
L2_cache_bank[7]: Access = 20897, Miss = 4469, Miss_rate = 0.214, Pending_hits = 7881, Reservation_fails = 12
L2_cache_bank[8]: Access = 20582, Miss = 4470, Miss_rate = 0.217, Pending_hits = 7753, Reservation_fails = 10
L2_cache_bank[9]: Access = 20926, Miss = 4470, Miss_rate = 0.214, Pending_hits = 7939, Reservation_fails = 9
L2_cache_bank[10]: Access = 20583, Miss = 4469, Miss_rate = 0.217, Pending_hits = 7721, Reservation_fails = 5
L2_cache_bank[11]: Access = 20925, Miss = 4469, Miss_rate = 0.214, Pending_hits = 7941, Reservation_fails = 12
L2_cache_bank[12]: Access = 20590, Miss = 4469, Miss_rate = 0.217, Pending_hits = 7768, Reservation_fails = 8
L2_cache_bank[13]: Access = 20929, Miss = 4469, Miss_rate = 0.214, Pending_hits = 7969, Reservation_fails = 13
L2_cache_bank[14]: Access = 20586, Miss = 4469, Miss_rate = 0.217, Pending_hits = 7663, Reservation_fails = 10
L2_cache_bank[15]: Access = 20925, Miss = 4469, Miss_rate = 0.214, Pending_hits = 7918, Reservation_fails = 13
L2_cache_bank[16]: Access = 20580, Miss = 4469, Miss_rate = 0.217, Pending_hits = 7670, Reservation_fails = 5
L2_cache_bank[17]: Access = 20920, Miss = 4469, Miss_rate = 0.214, Pending_hits = 8013, Reservation_fails = 13
L2_cache_bank[18]: Access = 20578, Miss = 4469, Miss_rate = 0.217, Pending_hits = 7764, Reservation_fails = 15
L2_cache_bank[19]: Access = 20921, Miss = 4469, Miss_rate = 0.214, Pending_hits = 7908, Reservation_fails = 12
L2_cache_bank[20]: Access = 20581, Miss = 4469, Miss_rate = 0.217, Pending_hits = 7730, Reservation_fails = 8
L2_cache_bank[21]: Access = 20897, Miss = 4468, Miss_rate = 0.214, Pending_hits = 7878, Reservation_fails = 11
L2_total_cache_accesses = 456444
L2_total_cache_misses = 98318
L2_total_cache_miss_rate = 0.2154
L2_total_cache_pending_hits = 172239
L2_total_cache_reservation_fails = 208
L2_total_cache_breakdown:
	L2_cache_stats_breakdown[GLOBAL_ACC_R][HIT] = 159531
	L2_cache_stats_breakdown[GLOBAL_ACC_R][HIT_RESERVED] = 121389
	L2_cache_stats_breakdown[GLOBAL_ACC_R][MISS] = 65536
	L2_cache_stats_breakdown[GLOBAL_ACC_R][RESERVATION_FAIL] = 0
	L2_cache_stats_breakdown[LOCAL_ACC_R][HIT] = 0
	L2_cache_stats_breakdown[LOCAL_ACC_R][HIT_RESERVED] = 0
	L2_cache_stats_breakdown[LOCAL_ACC_R][MISS] = 0
	L2_cache_stats_breakdown[LOCAL_ACC_R][RESERVATION_FAIL] = 0
	L2_cache_stats_breakdown[CONST_ACC_R][HIT] = 28
	L2_cache_stats_breakdown[CONST_ACC_R][HIT_RESERVED] = 27
	L2_cache_stats_breakdown[CONST_ACC_R][MISS] = 1
	L2_cache_stats_breakdown[CONST_ACC_R][RESERVATION_FAIL] = 0
	L2_cache_stats_breakdown[TEXTURE_ACC_R][HIT] = 0
	L2_cache_stats_breakdown[TEXTURE_ACC_R][HIT_RESERVED] = 0
	L2_cache_stats_breakdown[TEXTURE_ACC_R][MISS] = 0
	L2_cache_stats_breakdown[TEXTURE_ACC_R][RESERVATION_FAIL] = 0
	L2_cache_stats_breakdown[GLOBAL_ACC_W][HIT] = 26318
	L2_cache_stats_breakdown[GLOBAL_ACC_W][HIT_RESERVED] = 50482
	L2_cache_stats_breakdown[GLOBAL_ACC_W][MISS] = 32768
	L2_cache_stats_breakdown[GLOBAL_ACC_W][RESERVATION_FAIL] = 208
	L2_cache_stats_breakdown[LOCAL_ACC_W][HIT] = 0
	L2_cache_stats_breakdown[LOCAL_ACC_W][HIT_RESERVED] = 0
	L2_cache_stats_breakdown[LOCAL_ACC_W][MISS] = 0
	L2_cache_stats_breakdown[LOCAL_ACC_W][RESERVATION_FAIL] = 0
	L2_cache_stats_breakdown[L1_WRBK_ACC][HIT] = 0
	L2_cache_stats_breakdown[L1_WRBK_ACC][HIT_RESERVED] = 0
	L2_cache_stats_breakdown[L1_WRBK_ACC][MISS] = 0
	L2_cache_stats_breakdown[L1_WRBK_ACC][RESERVATION_FAIL] = 0
	L2_cache_stats_breakdown[L2_WRBK_ACC][HIT] = 0
	L2_cache_stats_breakdown[L2_WRBK_ACC][HIT_RESERVED] = 0
	L2_cache_stats_breakdown[L2_WRBK_ACC][MISS] = 0
	L2_cache_stats_breakdown[L2_WRBK_ACC][RESERVATION_FAIL] = 0
	L2_cache_stats_breakdown[INST_ACC_R][HIT] = 10
	L2_cache_stats_breakdown[INST_ACC_R][HIT_RESERVED] = 341
	L2_cache_stats_breakdown[INST_ACC_R][MISS] = 13
	L2_cache_stats_breakdown[INST_ACC_R][RESERVATION_FAIL] = 0
	L2_cache_stats_breakdown[L1_WR_ALLOC_R][HIT] = 0
	L2_cache_stats_breakdown[L1_WR_ALLOC_R][HIT_RESERVED] = 0
	L2_cache_stats_breakdown[L1_WR_ALLOC_R][MISS] = 0
	L2_cache_stats_breakdown[L1_WR_ALLOC_R][RESERVATION_FAIL] = 0
	L2_cache_stats_breakdown[L2_WR_ALLOC_R][HIT] = 0
	L2_cache_stats_breakdown[L2_WR_ALLOC_R][HIT_RESERVED] = 0
	L2_cache_stats_breakdown[L2_WR_ALLOC_R][MISS] = 0
	L2_cache_stats_breakdown[L2_WR_ALLOC_R][RESERVATION_FAIL] = 0
	L2_cache_stats_breakdown[GLOBAL_ACC_R][TOTAL_ACCESS] = 346456
	L2_cache_stats_breakdown[CONST_ACC_R][TOTAL_ACCESS] = 56
	L2_cache_stats_breakdown[GLOBAL_ACC_W][TOTAL_ACCESS] = 109568
	L2_cache_stats_breakdown[INST_ACC_R][TOTAL_ACCESS] = 364
L2_cache_data_port_util = 0.011
L2_cache_fill_port_util = 0.010

icnt_total_pkts_mem_to_simt=1270956
icnt_total_pkts_simt_to_mem=674556
LD_mem_lat_dist  0 0 0 0 0 0 0 0 0 0 0 0 0 0 0 0 0 0 0 0 0 0 0 0 0 0 0
ST_mem_lat_dist  0 0 0 0 0 0 0 0 0 0 0 0 0 0 0 0 0 0 0 0 0 0 0 0 0 0 0
----------------------------Interconnect-DETAILS--------------------------------
Class 0:
Packet latency average = 17.4525
	minimum = 6
	maximum = 752
Network latency average = 13.5207
	minimum = 6
	maximum = 747
Slowest packet = 534860
Flit latency average = 13.155
	minimum = 6
	maximum = 743
Slowest flit = 1143041
Fragmentation average = 0.00151716
	minimum = 0
	maximum = 658
Injected packet rate average = 0.00497243
	minimum = 0.00427229 (at node 26)
	maximum = 0.00569993 (at node 41)
Accepted packet rate average = 0.00497243
	minimum = 0.00427229 (at node 26)
	maximum = 0.00569993 (at node 41)
Injected flit rate average = 0.010597
	minimum = 0.00642274 (at node 26)
	maximum = 0.0158614 (at node 37)
Accepted flit rate average= 0.010597
	minimum = 0.00831009 (at node 34)
	maximum = 0.0126213 (at node 17)
Injected packet length average = 2.13116
Accepted packet length average = 2.13116
Total in-flight flits = 0 (0 measured)
====== Overall Traffic Statistics ======
====== Traffic class 0 ======
Packet latency average = 17.4525 (1 samples)
	minimum = 6 (1 samples)
	maximum = 752 (1 samples)
Network latency average = 13.5207 (1 samples)
	minimum = 6 (1 samples)
	maximum = 747 (1 samples)
Flit latency average = 13.155 (1 samples)
	minimum = 6 (1 samples)
	maximum = 743 (1 samples)
Fragmentation average = 0.00151716 (1 samples)
	minimum = 0 (1 samples)
	maximum = 658 (1 samples)
Injected packet rate average = 0.00497243 (1 samples)
	minimum = 0.00427229 (1 samples)
	maximum = 0.00569993 (1 samples)
Accepted packet rate average = 0.00497243 (1 samples)
	minimum = 0.00427229 (1 samples)
	maximum = 0.00569993 (1 samples)
Injected flit rate average = 0.010597 (1 samples)
	minimum = 0.00642274 (1 samples)
	maximum = 0.0158614 (1 samples)
Accepted flit rate average = 0.010597 (1 samples)
	minimum = 0.00831009 (1 samples)
	maximum = 0.0126213 (1 samples)
Injected packet size average = 2.13116 (1 samples)
Accepted packet size average = 2.13116 (1 samples)
Hops average = 1 (1 samples)
----------------------------END-of-Interconnect-DETAILS-------------------------


gpgpu_simulation_time = 0 days, 0 hrs, 50 min, 35 sec (3035 sec)
gpgpu_simulation_rate = 136891 (inst/sec)
gpgpu_simulation_rate = 678 (cycle/sec)

GPGPU-Sim PTX: cudaLaunch for 0x0x401ae2 (mode=performance simulation) on stream 0
GPGPU-Sim PTX: pushing kernel '_Z14calculate_tempiPfS_S_iiiiffffff' to stream 0, gridDim= (86,86,1) blockDim = (16,16,1) 
GPGPU-Sim uArch: Shader 16 bind to kernel 2 '_Z14calculate_tempiPfS_S_iiiiffffff'
GPGPU-Sim uArch: Shader 17 bind to kernel 2 '_Z14calculate_tempiPfS_S_iiiiffffff'
GPGPU-Sim uArch: Shader 18 bind to kernel 2 '_Z14calculate_tempiPfS_S_iiiiffffff'
GPGPU-Sim uArch: Shader 19 bind to kernel 2 '_Z14calculate_tempiPfS_S_iiiiffffff'
GPGPU-Sim uArch: Shader 20 bind to kernel 2 '_Z14calculate_tempiPfS_S_iiiiffffff'
GPGPU-Sim uArch: Shader 21 bind to kernel 2 '_Z14calculate_tempiPfS_S_iiiiffffff'
GPGPU-Sim uArch: Shader 22 bind to kernel 2 '_Z14calculate_tempiPfS_S_iiiiffffff'
GPGPU-Sim uArch: Shader 23 bind to kernel 2 '_Z14calculate_tempiPfS_S_iiiiffffff'
GPGPU-Sim uArch: Shader 24 bind to kernel 2 '_Z14calculate_tempiPfS_S_iiiiffffff'
GPGPU-Sim uArch: Shader 25 bind to kernel 2 '_Z14calculate_tempiPfS_S_iiiiffffff'
GPGPU-Sim uArch: Shader 26 bind to kernel 2 '_Z14calculate_tempiPfS_S_iiiiffffff'
GPGPU-Sim uArch: Shader 27 bind to kernel 2 '_Z14calculate_tempiPfS_S_iiiiffffff'
GPGPU-Sim uArch: Shader 0 bind to kernel 2 '_Z14calculate_tempiPfS_S_iiiiffffff'
[...]
F:  3402692----T:  3410014 	 St: c0513000 Sz: 53248 	 Sm: 0 	 T: memcpy_h2d(4.943957)
F:  3408309----T:  3417011 	 St: c0700000 Sz: 65536 	 Sm: 0 	 T: write_back(5.875760)
F:  3410014----T:  3413100 	 St: c0520000 Sz: 12288 	 Sm: 0 	 T: memcpy_h2d(2.083727)
F:  3413100----T:  3420422 	 St: c0523000 Sz: 53248 	 Sm: 0 	 T: memcpy_h2d(4.943957)
F:  3427702----T:  3430307 	 St: c0530000 Sz: 4096 	 Sm: 0 	 T: memcpy_h2d(1.758947)
F:  3427702----T:  3436404 	 St: c0710000 Sz: 65536 	 Sm: 0 	 T: write_back(5.875760)
F:  3430307----T:  3438547 	 St: c0531000 Sz: 61440 	 Sm: 0 	 T: memcpy_h2d(5.563808)
F:  3490295----T:  3493381 	 St: c0600000 Sz: 12288 	 Sm: 0 	 T: memcpy_h2d(2.083727)
F:  3490295----T:  3498997 	 St: c0720000 Sz: 65536 	 Sm: 0 	 T: write_back(5.875760)
F:  3493381----T:  3500703 	 St: c0603000 Sz: 53248 	 Sm: 0 	 T: memcpy_h2d(4.943957)
F:  3507124----T:  3509729 	 St: c0610000 Sz: 4096 	 Sm: 0 	 T: memcpy_h2d(1.758947)
F:  3507124----T:  3515826 	 St: c0000000 Sz: 65536 	 Sm: 0 	 T: write_back(5.875760)
F:  3509729----T:  3517969 	 St: c0611000 Sz: 61440 	 Sm: 0 	 T: memcpy_h2d(5.563808)
F:  3515826----T:  3524528 	 St: c0010000 Sz: 65536 	 Sm: 0 	 T: write_back(5.875760)
F:  3517969----T:  3520574 	 St: c0620000 Sz: 4096 	 Sm: 0 	 T: memcpy_h2d(1.758947)
F:  3520574----T:  3528814 	 St: c0621000 Sz: 61440 	 Sm: 0 	 T: memcpy_h2d(5.563808)
F:  3524529----T:  3533231 	 St: c0020000 Sz: 65536 	 Sm: 0 	 T: write_back(5.875760)
F:  3528814----T:  3531419 	 St: c0630000 Sz: 4096 	 Sm: 0 	 T: memcpy_h2d(1.758947)
F:  3531419----T:  3539659 	 St: c0631000 Sz: 61440 	 Sm: 0 	 T: memcpy_h2d(5.563808)
F:  3547399----T:  3550004 	 St: c0640000 Sz: 4096 	 Sm: 0 	 T: memcpy_h2d(1.758947)
F:  3547399----T:  3556101 	 St: c0030000 Sz: 65536 	 Sm: 0 	 T: write_back(5.875760)
F:  3550004----T:  3558244 	 St: c0641000 Sz: 61440 	 Sm: 0 	 T: memcpy_h2d(5.563808)
F:  3556102----T:  3564804 	 St: c0040000 Sz: 65536 	 Sm: 0 	 T: write_back(5.875760)
F:  3558244----T:  3562056 	 St: c0650000 Sz: 20480 	 Sm: 0 	 T: memcpy_h2d(2.573936)
F:  3562056----T:  3568468 	 St: c0655000 Sz: 45056 	 Sm: 0 	 T: memcpy_h2d(4.329507)
F:  3575093----T:  3578179 	 St: c0660000 Sz: 12288 	 Sm: 0 	 T: memcpy_h2d(2.083727)
F:  3575093----T:  3583795 	 St: c0050000 Sz: 65536 	 Sm: 0 	 T: write_back(5.875760)
F:  3578179----T:  3585501 	 St: c0663000 Sz: 53248 	 Sm: 0 	 T: memcpy_h2d(4.943957)
F:  3583796----T:  3592498 	 St: c0060000 Sz: 65536 	 Sm: 0 	 T: write_back(5.875760)
F:  3585501----T:  3588106 	 St: c0670000 Sz: 4096 	 Sm: 0 	 T: memcpy_h2d(1.758947)
F:  3588106----T:  3596346 	 St: c0671000 Sz: 61440 	 Sm: 0 	 T: memcpy_h2d(5.563808)
F:  3603932----T:  3606537 	 St: c0680000 Sz: 4096 	 Sm: 0 	 T: memcpy_h2d(1.758947)
F:  3603932----T:  3612634 	 St: c0070000 Sz: 65536 	 Sm: 0 	 T: write_back(5.875760)
F:  3606537----T:  3614777 	 St: c0681000 Sz: 61440 	 Sm: 0 	 T: memcpy_h2d(5.563808)
F:  3612635----T:  3621337 	 St: c0080000 Sz: 65536 	 Sm: 0 	 T: write_back(5.875760)
F:  3614777----T:  3617863 	 St: c0690000 Sz: 12288 	 Sm: 0 	 T: memcpy_h2d(2.083727)
F:  3617863----T:  3625185 	 St: c0693000 Sz: 53248 	 Sm: 0 	 T: memcpy_h2d(4.943957)
F:  3632536----T:  3635141 	 St: c06a0000 Sz: 4096 	 Sm: 0 	 T: memcpy_h2d(1.758947)
F:  3632536----T:  3641238 	 St: c0090000 Sz: 65536 	 Sm: 0 	 T: write_back(5.875760)
F:  3635141----T:  3643381 	 St: c06a1000 Sz: 61440 	 Sm: 0 	 T: memcpy_h2d(5.563808)
F:  3641238----T:  3649940 	 St: c00a0000 Sz: 65536 	 Sm: 0 	 T: write_back(5.875760)
F:  3643381----T:  3645986 	 St: c06b0000 Sz: 4096 	 Sm: 0 	 T: memcpy_h2d(1.758947)
F:  3645986----T:  3654226 	 St: c06b1000 Sz: 61440 	 Sm: 0 	 T: memcpy_h2d(5.563808)
F:  3649941----T:  3658643 	 St: c00b0000 Sz: 65536 	 Sm: 0 	 T: write_back(5.875760)
F:  3654226----T:  3656831 	 St: c06c0000 Sz: 4096 	 Sm: 0 	 T: memcpy_h2d(1.758947)
F:  3656831----T:  3665071 	 St: c06c1000 Sz: 61440 	 Sm: 0 	 T: memcpy_h2d(5.563808)
F:  3672968----T:  3676054 	 St: c06d0000 Sz: 12288 	 Sm: 0 	 T: memcpy_h2d(2.083727)
F:  3672968----T:  3681670 	 St: c00c0000 Sz: 65536 	 Sm: 0 	 T: write_back(5.875760)
F:  3676054----T:  3683376 	 St: c06d3000 Sz: 53248 	 Sm: 0 	 T: memcpy_h2d(4.943957)
F:  3681671----T:  3690373 	 St: c00d0000 Sz: 65536 	 Sm: 0 	 T: write_back(5.875760)
F:  3683376----T:  3687188 	 St: c06e0000 Sz: 20480 	 Sm: 0 	 T: memcpy_h2d(2.573936)
F:  3687188----T:  3693600 	 St: c06e5000 Sz: 45056 	 Sm: 0 	 T: memcpy_h2d(4.329507)
F:  3700860----T:  3703465 	 St: c06f0000 Sz: 4096 	 Sm: 0 	 T: memcpy_h2d(1.758947)
F:  3700860----T:  3709562 	 St: c00e0000 Sz: 65536 	 Sm: 0 	 T: write_back(5.875760)
F:  3703465----T:  3711705 	 St: c06f1000 Sz: 61440 	 Sm: 0 	 T: memcpy_h2d(5.563808)
F:  3709563----T:  3718265 	 St: c00f0000 Sz: 65536 	 Sm: 0 	 T: write_back(5.875760)
F:  3711705----T:  3714310 	 St: c0700000 Sz: 4096 	 Sm: 0 	 T: memcpy_h2d(1.758947)
F:  3714310----T:  3722550 	 St: c0701000 Sz: 61440 	 Sm: 0 	 T: memcpy_h2d(5.563808)
F:  3729766----T:  3732371 	 St: c0710000 Sz: 4096 	 Sm: 0 	 T: memcpy_h2d(1.758947)
F:  3729766----T:  3738468 	 St: c0100000 Sz: 65536 	 Sm: 0 	 T: write_back(5.875760)
F:  3732371----T:  3740611 	 St: c0711000 Sz: 61440 	 Sm: 0 	 T: memcpy_h2d(5.563808)
F:  3738469----T:  3747171 	 St: c0110000 Sz: 65536 	 Sm: 0 	 T: write_back(5.875760)
F:  3740611----T:  3743216 	 St: c0720000 Sz: 4096 	 Sm: 0 	 T: memcpy_h2d(1.758947)
F:  3743216----T:  3746016 	 St: c0721000 Sz: 8192 	 Sm: 0 	 T: memcpy_h2d(1.890614)
F:  3746016----T:  3753338 	 St: c0723000 Sz: 53248 	 Sm: 0 	 T: memcpy_h2d(4.943957)
F:  4036714----T:  4688654 	 	 	 Kl: 4 	 Sm: 0 	 T: kernel_launch(440.202576)
F:  4042518----T:  4045123 	 St: c0000000 Sz: 4096 	 Sm: 0 	 T: memcpy_h2d(1.758947)
F:  4042518----T:  4051220 	 St: c0120000 Sz: 65536 	 Sm: 0 	 T: write_back(5.875760)
F:  4045123----T:  4053363 	 St: c0001000 Sz: 61440 	 Sm: 0 	 T: memcpy_h2d(5.563808)
F:  4051220----T:  4059922 	 St: c0130000 Sz: 65536 	 Sm: 0 	 T: write_back(5.875760)
F:  4053363----T:  4055968 	 St: c0010000 Sz: 4096 	 Sm: 0 	 T: memcpy_h2d(1.758947)
F:  4055968----T:  4064208 	 St: c0011000 Sz: 61440 	 Sm: 0 	 T: memcpy_h2d(5.563808)
F:  4059923----T:  4068625 	 St: c0200000 Sz: 65536 	 Sm: 0 	 T: write_back(5.875760)
F:  4064208----T:  4067294 	 St: c0020000 Sz: 12288 	 Sm: 0 	 T: memcpy_h2d(2.083727)
F:  4067294----T:  4074616 	 St: c0023000 Sz: 53248 	 Sm: 0 	 T: memcpy_h2d(4.943957)
F:  4082368----T:  4084973 	 St: c0030000 Sz: 4096 	 Sm: 0 	 T: memcpy_h2d(1.758947)
F:  4082368----T:  4091070 	 St: c0210000 Sz: 65536 	 Sm: 0 	 T: write_back(5.875760)
F:  4084973----T:  4093213 	 St: c0031000 Sz: 61440 	 Sm: 0 	 T: memcpy_h2d(5.563808)
F:  4091071----T:  4099773 	 St: c0220000 Sz: 65536 	 Sm: 0 	 T: write_back(5.875760)
F:  4093213----T:  4095818 	 St: c0040000 Sz: 4096 	 Sm: 0 	 T: memcpy_h2d(1.758947)
F:  4095818----T:  4104058 	 St: c0041000 Sz: 61440 	 Sm: 0 	 T: memcpy_h2d(5.563808)
F:  4110543----T:  4113629 	 St: c0050000 Sz: 12288 	 Sm: 0 	 T: memcpy_h2d(2.083727)
F:  4110543----T:  4119245 	 St: c0230000 Sz: 65536 	 Sm: 0 	 T: write_back(5.875760)
F:  4113629----T:  4120951 	 St: c0053000 Sz: 53248 	 Sm: 0 	 T: memcpy_h2d(4.943957)
F:  4119246----T:  4127948 	 St: c0240000 Sz: 65536 	 Sm: 0 	 T: write_back(5.875760)
F:  4120951----T:  4123556 	 St: c0060000 Sz: 4096 	 Sm: 0 	 T: memcpy_h2d(1.758947)
F:  4123556----T:  4131796 	 St: c0061000 Sz: 61440 	 Sm: 0 	 T: memcpy_h2d(5.563808)
F:  4138984----T:  4141589 	 St: c0070000 Sz: 4096 	 Sm: 0 	 T: memcpy_h2d(1.758947)
F:  4138984----T:  4147686 	 St: c0250000 Sz: 65536 	 Sm: 0 	 T: write_back(5.875760)
F:  4141589----T:  4149829 	 St: c0071000 Sz: 61440 	 Sm: 0 	 T: memcpy_h2d(5.563808)
F:  4147687----T:  4156389 	 St: c0260000 Sz: 65536 	 Sm: 0 	 T: write_back(5.875760)
F:  4149829----T:  4152915 	 St: c0080000 Sz: 12288 	 Sm: 0 	 T: memcpy_h2d(2.083727)
F:  4152915----T:  4160237 	 St: c0083000 Sz: 53248 	 Sm: 0 	 T: memcpy_h2d(4.943957)
F:  4167618----T:  4170704 	 St: c0090000 Sz: 12288 	 Sm: 0 	 T: memcpy_h2d(2.083727)
F:  4167618----T:  4176320 	 St: c0270000 Sz: 65536 	 Sm: 0 	 T: write_back(5.875760)
F:  4170704----T:  4178026 	 St: c0093000 Sz: 53248 	 Sm: 0 	 T: memcpy_h2d(4.943957)
F:  4176320----T:  4185022 	 St: c0280000 Sz: 65536 	 Sm: 0 	 T: write_back(5.875760)
F:  4178026----T:  4181112 	 St: c00a0000 Sz: 12288 	 Sm: 0 	 T: memcpy_h2d(2.083727)
F:  4181112----T:  4188434 	 St: c00a3000 Sz: 53248 	 Sm: 0 	 T: memcpy_h2d(4.943957)
F:  4185023----T:  4193725 	 St: c0290000 Sz: 65536 	 Sm: 0 	 T: write_back(5.875760)
F:  4188434----T:  4191039 	 St: c00b0000 Sz: 4096 	 Sm: 0 	 T: memcpy_h2d(1.758947)
F:  4191039----T:  4199279 	 St: c00b1000 Sz: 61440 	 Sm: 0 	 T: memcpy_h2d(5.563808)
F:  4207201----T:  4209806 	 St: c00c0000 Sz: 4096 	 Sm: 0 	 T: memcpy_h2d(1.758947)
F:  4207201----T:  4215903 	 St: c02a0000 Sz: 65536 	 Sm: 0 	 T: write_back(5.875760)
F:  4209806----T:  4218046 	 St: c00c1000 Sz: 61440 	 Sm: 0 	 T: memcpy_h2d(5.563808)
F:  4215904----T:  4224606 	 St: c02b0000 Sz: 65536 	 Sm: 0 	 T: write_back(5.875760)
F:  4218046----T:  4221858 	 St: c00d0000 Sz: 20480 	 Sm: 0 	 T: memcpy_h2d(2.573936)
F:  4221858----T:  4228270 	 St: c00d5000 Sz: 45056 	 Sm: 0 	 T: memcpy_h2d(4.329507)
F:  4235066----T:  4238152 	 St: c00e0000 Sz: 12288 	 Sm: 0 	 T: memcpy_h2d(2.083727)
F:  4235066----T:  4243768 	 St: c02c0000 Sz: 65536 	 Sm: 0 	 T: write_back(5.875760)
F:  4238152----T:  4245474 	 St: c00e3000 Sz: 53248 	 Sm: 0 	 T: memcpy_h2d(4.943957)
F:  4243769----T:  4252471 	 St: c02d0000 Sz: 65536 	 Sm: 0 	 T: write_back(5.875760)
F:  4245474----T:  4248079 	 St: c00f0000 Sz: 4096 	 Sm: 0 	 T: memcpy_h2d(1.758947)
F:  4248079----T:  4256319 	 St: c00f1000 Sz: 61440 	 Sm: 0 	 T: memcpy_h2d(5.563808)
F:  4263558----T:  4266644 	 St: c0100000 Sz: 12288 	 Sm: 0 	 T: memcpy_h2d(2.083727)
F:  4263558----T:  4272260 	 St: c02e0000 Sz: 65536 	 Sm: 0 	 T: write_back(5.875760)
F:  4266644----T:  4273966 	 St: c0103000 Sz: 53248 	 Sm: 0 	 T: memcpy_h2d(4.943957)
F:  4272261----T:  4280963 	 St: c02f0000 Sz: 65536 	 Sm: 0 	 T: write_back(5.875760)
F:  4273966----T:  4277052 	 St: c0110000 Sz: 12288 	 Sm: 0 	 T: memcpy_h2d(2.083727)
F:  4277052----T:  4284374 	 St: c0113000 Sz: 53248 	 Sm: 0 	 T: memcpy_h2d(4.943957)
F:  4291714----T:  4294319 	 St: c0120000 Sz: 4096 	 Sm: 0 	 T: memcpy_h2d(1.758947)
F:  4291714----T:  4300416 	 St: c0300000 Sz: 65536 	 Sm: 0 	 T: write_back(5.875760)
F:  4294319----T:  4302559 	 St: c0121000 Sz: 61440 	 Sm: 0 	 T: memcpy_h2d(5.563808)
F:  4300417----T:  4309119 	 St: c0310000 Sz: 65536 	 Sm: 0 	 T: write_back(5.875760)
F:  4302559----T:  4305164 	 St: c0130000 Sz: 4096 	 Sm: 0 	 T: memcpy_h2d(1.758947)
F:  4305164----T:  4313404 	 St: c0131000 Sz: 61440 	 Sm: 0 	 T: memcpy_h2d(5.563808)
F:  4368152----T:  4370757 	 St: c0200000 Sz: 4096 	 Sm: 0 	 T: memcpy_h2d(1.758947)
F:  4368152----T:  4376854 	 St: c0320000 Sz: 65536 	 Sm: 0 	 T: write_back(5.875760)
F:  4370757----T:  4378997 	 St: c0201000 Sz: 61440 	 Sm: 0 	 T: memcpy_h2d(5.563808)
F:  4376855----T:  4385557 	 St: c0400000 Sz: 65536 	 Sm: 0 	 T: write_back(5.875760)
F:  4378997----T:  4381602 	 St: c0210000 Sz: 4096 	 Sm: 0 	 T: memcpy_h2d(1.758947)
F:  4381602----T:  4389842 	 St: c0211000 Sz: 61440 	 Sm: 0 	 T: memcpy_h2d(5.563808)
F:  4397031----T:  4399636 	 St: c0220000 Sz: 4096 	 Sm: 0 	 T: memcpy_h2d(1.758947)
F:  4397031----T:  4405733 	 St: c0410000 Sz: 65536 	 Sm: 0 	 T: write_back(5.875760)
F:  4399636----T:  4407876 	 St: c0221000 Sz: 61440 	 Sm: 0 	 T: memcpy_h2d(5.563808)
F:  4405734----T:  4414436 	 St: c0420000 Sz: 65536 	 Sm: 0 	 T: write_back(5.875760)
F:  4407876----T:  4410962 	 St: c0230000 Sz: 12288 	 Sm: 0 	 T: memcpy_h2d(2.083727)
F:  4410962----T:  4418284 	 St: c0233000 Sz: 53248 	 Sm: 0 	 T: memcpy_h2d(4.943957)
F:  4425340----T:  4427945 	 St: c0240000 Sz: 4096 	 Sm: 0 	 T: memcpy_h2d(1.758947)
F:  4425340----T:  4434042 	 St: c0430000 Sz: 65536 	 Sm: 0 	 T: write_back(5.875760)
F:  4427945----T:  4436185 	 St: c0241000 Sz: 61440 	 Sm: 0 	 T: memcpy_h2d(5.563808)
F:  4434042----T:  4442744 	 St: c0440000 Sz: 65536 	 Sm: 0 	 T: write_back(5.875760)
F:  4436185----T:  4438790 	 St: c0250000 Sz: 4096 	 Sm: 0 	 T: memcpy_h2d(1.758947)
F:  4438790----T:  4447030 	 St: c0251000 Sz: 61440 	 Sm: 0 	 T: memcpy_h2d(5.563808)
F:  4442745----T:  4451447 	 St: c0450000 Sz: 65536 	 Sm: 0 	 T: write_back(5.875760)
F:  4447030----T:  4449635 	 St: c0260000 Sz: 4096 	 Sm: 0 	 T: memcpy_h2d(1.758947)
F:  4449635----T:  4457875 	 St: c0261000 Sz: 61440 	 Sm: 0 	 T: memcpy_h2d(5.563808)
F:  4465655----T:  4468260 	 St: c0270000 Sz: 4096 	 Sm: 0 	 T: memcpy_h2d(1.758947)
F:  4465655----T:  4474357 	 St: c0460000 Sz: 65536 	 Sm: 0 	 T: write_back(5.875760)
F:  4468260----T:  4476500 	 St: c0271000 Sz: 61440 	 Sm: 0 	 T: memcpy_h2d(5.563808)
F:  4474358----T:  4483060 	 St: c0470000 Sz: 65536 	 Sm: 0 	 T: write_back(5.875760)
F:  4476500----T:  4479105 	 St: c0280000 Sz: 4096 	 Sm: 0 	 T: memcpy_h2d(1.758947)
F:  4479105----T:  4487345 	 St: c0281000 Sz: 61440 	 Sm: 0 	 T: memcpy_h2d(5.563808)
F:  4493895----T:  4496500 	 St: c0290000 Sz: 4096 	 Sm: 0 	 T: memcpy_h2d(1.758947)
F:  4493895----T:  4502597 	 St: c0480000 Sz: 65536 	 Sm: 0 	 T: write_back(5.875760)
F:  4496500----T:  4504740 	 St: c0291000 Sz: 61440 	 Sm: 0 	 T: memcpy_h2d(5.563808)
F:  4502598----T:  4511300 	 St: c0490000 Sz: 65536 	 Sm: 0 	 T: write_back(5.875760)
F:  4504740----T:  4507345 	 St: c02a0000 Sz: 4096 	 Sm: 0 	 T: memcpy_h2d(1.758947)
F:  4507345----T:  4515585 	 St: c02a1000 Sz: 61440 	 Sm: 0 	 T: memcpy_h2d(5.563808)
F:  4522764----T:  4525850 	 St: c02b0000 Sz: 12288 	 Sm: 0 	 T: memcpy_h2d(2.083727)
F:  4522764----T:  4531466 	 St: c04a0000 Sz: 65536 	 Sm: 0 	 T: write_back(5.875760)
F:  4525850----T:  4533172 	 St: c02b3000 Sz: 53248 	 Sm: 0 	 T: memcpy_h2d(4.943957)
F:  4531467----T:  4540169 	 St: c04b0000 Sz: 65536 	 Sm: 0 	 T: write_back(5.875760)
F:  4533172----T:  4535777 	 St: c02c0000 Sz: 4096 	 Sm: 0 	 T: memcpy_h2d(1.758947)
F:  4535777----T:  4544017 	 St: c02c1000 Sz: 61440 	 Sm: 0 	 T: memcpy_h2d(5.563808)
F:  4551490----T:  4554095 	 St: c02d0000 Sz: 4096 	 Sm: 0 	 T: memcpy_h2d(1.758947)
F:  4551490----T:  4560192 	 St: c04c0000 Sz: 65536 	 Sm: 0 	 T: write_back(5.875760)
F:  4554095----T:  4562335 	 St: c02d1000 Sz: 61440 	 Sm: 0 	 T: memcpy_h2d(5.563808)
F:  4560192----T:  4568894 	 St: c04d0000 Sz: 65536 	 Sm: 0 	 T: write_back(5.875760)
F:  4562335----T:  4564940 	 St: c02e0000 Sz: 4096 	 Sm: 0 	 T: memcpy_h2d(1.758947)
F:  4564940----T:  4573180 	 St: c02e1000 Sz: 61440 	 Sm: 0 	 T: memcpy_h2d(5.563808)
F:  4568895----T:  4577597 	 St: c04e0000 Sz: 65536 	 Sm: 0 	 T: write_back(5.875760)
F:  4573180----T:  4575785 	 St: c02f0000 Sz: 4096 	 Sm: 0 	 T: memcpy_h2d(1.758947)
F:  4575785----T:  4584025 	 St: c02f1000 Sz: 61440 	 Sm: 0 	 T: memcpy_h2d(5.563808)
F:  4591928----T:  4595014 	 St: c0300000 Sz: 12288 	 Sm: 0 	 T: memcpy_h2d(2.083727)
F:  4591928----T:  4600630 	 St: c04f0000 Sz: 65536 	 Sm: 0 	 T: write_back(5.875760)
F:  4595014----T:  4602336 	 St: c0303000 Sz: 53248 	 Sm: 0 	 T: memcpy_h2d(4.943957)
F:  4600631----T:  4609333 	 St: c0500000 Sz: 65536 	 Sm: 0 	 T: write_back(5.875760)
F:  4602336----T:  4606148 	 St: c0310000 Sz: 20480 	 Sm: 0 	 T: memcpy_h2d(2.573936)
F:  4606148----T:  4612560 	 St: c0315000 Sz: 45056 	 Sm: 0 	 T: memcpy_h2d(4.329507)
F:  4619197----T:  4621802 	 St: c0320000 Sz: 4096 	 Sm: 0 	 T: memcpy_h2d(1.758947)
F:  4619197----T:  4627899 	 St: c0510000 Sz: 65536 	 Sm: 0 	 T: write_back(5.875760)
F:  4621802----T:  4630042 	 St: c0321000 Sz: 61440 	 Sm: 0 	 T: memcpy_h2d(5.563808)
F:  4688654----T:  4691259 	 St: 0 Sz: 4096 	 Sm: 0 	 T: device_sync(1.758947)
F:  4688654----T:  4696894 	 St: 0 Sz: 61440 	 Sm: 0 	 T: device_sync(5.563808)
F:  4699499----T:  4702104 	 St: 0 Sz: 4096 	 Sm: 0 	 T: device_sync(1.758947)
F:  4699499----T:  4707739 	 St: 0 Sz: 61440 	 Sm: 0 	 T: device_sync(5.563808)
F:  4710344----T:  4712949 	 St: 0 Sz: 4096 	 Sm: 0 	 T: device_sync(1.758947)
F:  4710344----T:  4726039 	 St: 0 Sz: 126976 	 Sm: 0 	 T: device_sync(10.597569)
F:  4728644----T:  4731249 	 St: 0 Sz: 4096 	 Sm: 0 	 T: device_sync(1.758947)
F:  4728644----T:  4759367 	 St: 0 Sz: 258048 	 Sm: 0 	 T: device_sync(20.744766)
F:  4761972----T:  4764577 	 St: 0 Sz: 4096 	 Sm: 0 	 T: device_sync(1.758947)
F:  4761972----T:  4822808 	 St: 0 Sz: 520192 	 Sm: 0 	 T: device_sync(41.077652)
F:  4825413----T:  4828018 	 St: 0 Sz: 4096 	 Sm: 0 	 T: device_sync(1.758947)
F:  4825413----T:  4946502 	 St: 0 Sz: 1044480 	 Sm: 0 	 T: device_sync(81.761650)
F:  4949107----T:  4951712 	 St: 0 Sz: 4096 	 Sm: 0 	 T: device_sync(1.758947)
F:  4949107----T:  4957347 	 St: 0 Sz: 61440 	 Sm: 0 	 T: device_sync(5.563808)
F:  4959952----T:  4962557 	 St: 0 Sz: 4096 	 Sm: 0 	 T: device_sync(1.758947)
F:  4959952----T:  4968192 	 St: 0 Sz: 61440 	 Sm: 0 	 T: device_sync(5.563808)
F:  4970797----T:  4973402 	 St: 0 Sz: 4096 	 Sm: 0 	 T: device_sync(1.758947)
F:  4970797----T:  4986492 	 St: 0 Sz: 126976 	 Sm: 0 	 T: device_sync(10.597569)
F:  4989097----T:  4991702 	 St: 0 Sz: 4096 	 Sm: 0 	 T: device_sync(1.758947)
F:  4989097----T:  5019820 	 St: 0 Sz: 258048 	 Sm: 0 	 T: device_sync(20.744766)
F:  5022425----T:  5025030 	 St: 0 Sz: 4096 	 Sm: 0 	 T: device_sync(1.758947)
F:  5022425----T:  5083261 	 St: 0 Sz: 520192 	 Sm: 0 	 T: device_sync(41.077652)
F:  5085866----T:  5088471 	 St: 0 Sz: 4096 	 Sm: 0 	 T: device_sync(1.758947)
F:  5085866----T:  5206955 	 St: 0 Sz: 1044480 	 Sm: 0 	 T: device_sync(81.761650)
F:  5209560----T:  5212165 	 St: 0 Sz: 4096 	 Sm: 0 	 T: device_sync(1.758947)
F:  5209560----T:  5217800 	 St: 0 Sz: 61440 	 Sm: 0 	 T: device_sync(5.563808)
F:  5220405----T:  5223010 	 St: 0 Sz: 4096 	 Sm: 0 	 T: device_sync(1.758947)
F:  5220405----T:  5228645 	 St: 0 Sz: 61440 	 Sm: 0 	 T: device_sync(5.563808)
F:  5231250----T:  5233855 	 St: 0 Sz: 4096 	 Sm: 0 	 T: device_sync(1.758947)
F:  5231250----T:  5246945 	 St: 0 Sz: 126976 	 Sm: 0 	 T: device_sync(10.597569)
F:  5249550----T:  5252155 	 St: 0 Sz: 4096 	 Sm: 0 	 T: device_sync(1.758947)
F:  5249550----T:  5280273 	 St: 0 Sz: 258048 	 Sm: 0 	 T: device_sync(20.744766)
F:  5282878----T:  5285483 	 St: 0 Sz: 4096 	 Sm: 0 	 T: device_sync(1.758947)
F:  5282878----T:  5343714 	 St: 0 Sz: 520192 	 Sm: 0 	 T: device_sync(41.077652)
F:  5346319----T:  5348924 	 St: 0 Sz: 4096 	 Sm: 0 	 T: device_sync(1.758947)
F:  5346319----T:  5467408 	 St: 0 Sz: 1044480 	 Sm: 0 	 T: device_sync(81.761650)
F:  5470013----T:  5472618 	 St: 0 Sz: 4096 	 Sm: 0 	 T: device_sync(1.758947)
F:  5470013----T:  5478253 	 St: 0 Sz: 61440 	 Sm: 0 	 T: device_sync(5.563808)
F:  5480858----T:  5483463 	 St: 0 Sz: 4096 	 Sm: 0 	 T: device_sync(1.758947)
F:  5480858----T:  5489098 	 St: 0 Sz: 61440 	 Sm: 0 	 T: device_sync(5.563808)
F:  5491703----T:  5494308 	 St: 0 Sz: 4096 	 Sm: 0 	 T: device_sync(1.758947)
F:  5491703----T:  5507398 	 St: 0 Sz: 126976 	 Sm: 0 	 T: device_sync(10.597569)
F:  5510003----T:  5512608 	 St: 0 Sz: 4096 	 Sm: 0 	 T: device_sync(1.758947)
F:  5510003----T:  5540726 	 St: 0 Sz: 258048 	 Sm: 0 	 T: device_sync(20.744766)
F:  5543331----T:  5545936 	 St: 0 Sz: 4096 	 Sm: 0 	 T: device_sync(1.758947)
F:  5543331----T:  5589107 	 St: 0 Sz: 389120 	 Sm: 0 	 T: device_sync(30.908846)
Tot_prefetch_time: 0(cycle), 0.000000(us)
Tot_kernel_exec_time: 3800054(cycle), 2565.870361(us)
Tot_kernel_exec_time_and_fault_time: 15129704(cycle), 10215.870117(us)
Tot_memcpy_h2d_time: 2857101(cycle), 1929.170166(us)
Tot_memcpy_d2h_time: 0(cycle), 0.000000(us)
Tot_memcpy_time: 2857101(cycle), 1929.170166(us)
Tot_devicesync_time: 903058(cycle), 609.762329(us)
Tot_writeback_time: 1174770(cycle), 793.227539(us)
Tot_dma_time: 0(cycle), 0.000000(us)
Tot_memcpy_d2h_sync_wb_time: 2077828(cycle), 1402.989868(us)
GPGPU-Sim: *** exit detected ***
