

        *** GPGPU-Sim Simulator Version 3.2.2  [build gpgpu-sim_git-commit-a9062585c7d8c1292454d5112e137c93a1d88fca_modified_3] ***


GPGPU-Sim PTX: simulation mode 0 (can change with PTX_SIM_MODE_FUNC environment variable:
               1=functional simulation only, 0=detailed performance simulator)
GPGPU-Sim: Configuration options:

-network_mode                           1 # Interconnection network mode
-inter_config_file   config_fermi_islip.icnt # Interconnection network config file
-gpgpu_ptx_use_cuobjdump                    1 # Use cuobjdump to extract ptx and sass from binaries
-gpgpu_experimental_lib_support                    0 # Try to extract code from cuda libraries [Broken because of unknown cudaGetExportTable]
-gpgpu_ptx_convert_to_ptxplus                    0 # Convert SASS (native ISA) to ptxplus and run ptxplus
-gpgpu_ptx_force_max_capability                   20 # Force maximum compute capability
-gpgpu_ptx_inst_debug_to_file                    0 # Dump executed instructions' debug information to file
-gpgpu_ptx_inst_debug_file       inst_debug.txt # Executed instructions' debug output file
-gpgpu_ptx_inst_debug_thread_uid                    1 # Thread UID for executed instructions' debug output
-gpgpu_simd_model                       1 # 1 = post-dominator
-gpgpu_shader_core_pipeline              2048:32 # shader core pipeline config, i.e., {<nthread>:<warpsize>}
-gpgpu_tex_cache:l1  16:128:24,L:R:m:N:L,F:128:4,128:2 # per-shader L1 texture cache  (READ-ONLY) config  {<nsets>:<bsize>:<assoc>,<rep>:<wr>:<alloc>:<wr_alloc>,<mshr>:<N>:<merge>,<mq>:<rf>}
-gpgpu_const_cache:l1 128:64:2,L:R:f:N:L,A:2:64,4 # per-shader L1 constant memory cache  (READ-ONLY) config  {<nsets>:<bsize>:<assoc>,<rep>:<wr>:<alloc>:<wr_alloc>,<mshr>:<N>:<merge>,<mq>} 
-gpgpu_cache:il1     8:128:4,L:R:f:N:L,A:2:48,4 # shader L1 instruction cache config  {<nsets>:<bsize>:<assoc>,<rep>:<wr>:<alloc>:<wr_alloc>,<mshr>:<N>:<merge>,<mq>} 
-gpgpu_cache:dl1     64:128:6,L:L:m:N:H,A:128:8,8 # per-shader L1 data cache config  {<nsets>:<bsize>:<assoc>,<rep>:<wr>:<alloc>:<wr_alloc>,<mshr>:<N>:<merge>,<mq> | none}
-gpgpu_cache:dl1PrefL1                 none # per-shader L1 data cache config  {<nsets>:<bsize>:<assoc>,<rep>:<wr>:<alloc>:<wr_alloc>,<mshr>:<N>:<merge>,<mq> | none}
-gpgpu_cache:dl1PrefShared                 none # per-shader L1 data cache config  {<nsets>:<bsize>:<assoc>,<rep>:<wr>:<alloc>:<wr_alloc>,<mshr>:<N>:<merge>,<mq> | none}
-gmem_skip_L1D                          1 # global memory access skip L1D cache (implements -Xptxas -dlcm=cg, default=no skip)
-gpgpu_perfect_mem                      0 # enable perfect memory mode (no cache miss)
-n_regfile_gating_group                    4 # group of lanes that should be read/written together)
-gpgpu_clock_gated_reg_file                    0 # enable clock gated reg file for power calculations
-gpgpu_clock_gated_lanes                    0 # enable clock gated lanes for power calculations
-gpgpu_shader_registers                65536 # Number of registers per shader core. Limits number of concurrent CTAs. (default 8192)
-gpgpu_shader_cta                      32 # Maximum number of concurrent CTAs in shader (default 8)
-gpgpu_num_cta_barriers                   16 # Maximum number of named barriers per CTA (default 16)
-gpgpu_n_clusters                      28 # number of processing clusters
-gpgpu_n_cores_per_cluster                    1 # number of simd cores per cluster
-gpgpu_n_cluster_ejection_buffer_size                    8 # number of packets in ejection buffer
-gpgpu_n_ldst_response_buffer_size                    2 # number of response packets in ld/st unit ejection buffer
-gpgpu_shmem_size                   16384 # Size of shared memory per shader core (default 16kB)
-gpgpu_shmem_size                   98304 # Size of shared memory per shader core (default 16kB)
-gpgpu_shmem_size_PrefL1                16384 # Size of shared memory per shader core (default 16kB)
-gpgpu_shmem_size_PrefShared                16384 # Size of shared memory per shader core (default 16kB)
-gpgpu_shmem_num_banks                   32 # Number of banks in the shared memory in each shader core (default 16)
-gpgpu_shmem_limited_broadcast                    0 # Limit shared memory to do one broadcast per cycle (default on)
-gpgpu_shmem_warp_parts                    1 # Number of portions a warp is divided into for shared memory bank conflict check 
-gpgpu_warpdistro_shader                   -1 # Specify which shader core to collect the warp size distribution from
-gpgpu_warp_issue_shader                    0 # Specify which shader core to collect the warp issue distribution from
-gpgpu_local_mem_map                    1 # Mapping from local memory space address to simulated GPU physical address space (default = enabled)
-gpgpu_num_reg_banks                   32 # Number of register banks (default = 8)
-gpgpu_reg_bank_use_warp_id                    0 # Use warp ID in mapping registers to banks (default = off)
-gpgpu_operand_collector_num_units_sp                   20 # number of collector units (default = 4)
-gpgpu_operand_collector_num_units_sfu                    4 # number of collector units (default = 4)
-gpgpu_operand_collector_num_units_mem                    8 # number of collector units (default = 2)
-gpgpu_operand_collector_num_units_gen                    0 # number of collector units (default = 0)
-gpgpu_operand_collector_num_in_ports_sp                    4 # number of collector unit in ports (default = 1)
-gpgpu_operand_collector_num_in_ports_sfu                    1 # number of collector unit in ports (default = 1)
-gpgpu_operand_collector_num_in_ports_mem                    1 # number of collector unit in ports (default = 1)
-gpgpu_operand_collector_num_in_ports_gen                    0 # number of collector unit in ports (default = 0)
-gpgpu_operand_collector_num_out_ports_sp                    4 # number of collector unit in ports (default = 1)
-gpgpu_operand_collector_num_out_ports_sfu                    1 # number of collector unit in ports (default = 1)
-gpgpu_operand_collector_num_out_ports_mem                    1 # number of collector unit in ports (default = 1)
-gpgpu_operand_collector_num_out_ports_gen                    0 # number of collector unit in ports (default = 0)
-gpgpu_coalesce_arch                   13 # Coalescing arch (default = 13, anything else is off for now)
-gpgpu_num_sched_per_core                    2 # Number of warp schedulers per core
-gpgpu_max_insn_issue_per_warp                    2 # Max number of instructions that can be issued per warp in one cycle by scheduler
-gpgpu_simt_core_sim_order                    1 # Select the simulation order of cores in a cluster (0=Fix, 1=Round-Robin)
-gpgpu_pipeline_widths        4,1,1,4,1,1,6 # Pipeline widths ID_OC_SP,ID_OC_SFU,ID_OC_MEM,OC_EX_SP,OC_EX_SFU,OC_EX_MEM,EX_WB
-gpgpu_num_sp_units                     4 # Number of SP units (default=1)
-gpgpu_num_sfu_units                    1 # Number of SF units (default=1)
-gpgpu_num_mem_units                    1 # Number if ldst units (default=1) WARNING: not hooked up to anything
-gpgpu_scheduler                      gto # Scheduler configuration: < lrr | gto | two_level_active > If two_level_active:<num_active_warps>:<inner_prioritization>:<outer_prioritization>For complete list of prioritization values see shader.h enum scheduler_prioritization_typeDefault: gto
-gpgpu_concurrent_kernel_sm                    0 # Support concurrent kernels on a SM (default = disabled)
-tlb_size                            4096 # Number of tlb entries per SM.
-gpgpu_dram_scheduler                    1 # 0 = fifo, 1 = FR-FCFS (defaul)
-gpgpu_dram_partition_queues              8:8:8:8 # i2$:$2d:d2$:$2i
-l2_ideal                               0 # Use a ideal L2 cache that always hit
-gpgpu_cache:dl2     64:128:16,L:B:m:W:L,A:1024:1024,4:0,32 # unified banked L2 data cache config  {<nsets>:<bsize>:<assoc>,<rep>:<wr>:<alloc>:<wr_alloc>,<mshr>:<N>:<merge>,<mq>}
-gpgpu_cache:dl2_texture_only                    0 # L2 cache used for texture only
-gpgpu_n_mem                           11 # number of memory modules (e.g. memory controllers) in gpu
-gpgpu_n_sub_partition_per_mchannel                    2 # number of memory subpartition in each memory module
-gpgpu_n_mem_per_ctrlr                    1 # number of memory chips per memory controller
-gpgpu_memlatency_stat                   14 # track and display latency statistics 0x2 enables MC, 0x4 enables queue logs
-gpgpu_frfcfs_dram_sched_queue_size                   64 # 0 = unlimited (default); # entries per chip
-gpgpu_dram_return_queue_size                  116 # 0 = unlimited (default); # entries per chip
-gpgpu_dram_buswidth                    4 # default = 4 bytes (8 bytes per cycle at DDR)
-gpgpu_dram_burst_length                    8 # Burst length of each DRAM request (default = 4 data bus cycle)
-dram_data_command_freq_ratio                    4 # Frequency ratio between DRAM data bus and command bus (default = 2 times, i.e. DDR)
-gpgpu_dram_timing_opt nbk=16:CCD=2:RRD=6:RCD=12:RAS=28:RP=12:RC=40: CL=12:WL=4:CDLR=5:WR=12:nbkgrp=1:CCDL=0:RTPL=0 # DRAM timing parameters = {nbk:tCCD:tRRD:tRCD:tRAS:tRP:tRC:CL:WL:tCDLR:tWR:nbkgrp:tCCDL:tRTPL}
-rop_latency                          120 # ROP queue latency (default 85)
-dram_latency                         100 # DRAM latency (default 30)
-gpgpu_mem_addr_mapping dramid@8;00000000.00000000.00000000.00000000.0000RRRR.RRRRRRRR.RBBBCCCC.BCCSSSSS # mapping memory address to dram model {dramid@<start bit>;<memory address map>}
-gpgpu_mem_addr_test                    0 # run sweep test to check address mapping for aliased address
-gpgpu_mem_address_mask                    1 # 0 = old addressing mask, 1 = new addressing mask, 2 = new add. mask + flipped bank sel and chip sel bits
-gpuwattch_xml_file  gpuwattch_geforcegtx1080ti.xml # GPUWattch XML file
-power_simulation_enabled                    1 # Turn on power simulator (1=On, 0=Off)
-power_per_cycle_dump                    0 # Dump detailed power output each cycle
-power_trace_enabled                    0 # produce a file for the power trace (1=On, 0=Off)
-power_trace_zlevel                     6 # Compression level of the power trace output log (0=no comp, 9=highest)
-steady_power_levels_enabled                    0 # produce a file for the steady power levels (1=On, 0=Off)
-steady_state_definition                  8:4 # allowed deviation:number of samples
-gpgpu_max_cycle                        0 # terminates gpu simulation early (0 = no limit)
-gpgpu_max_insn                         0 # terminates gpu simulation early (0 = no limit)
-gpgpu_max_cta                          0 # terminates gpu simulation early (0 = no limit)
-gpgpu_runtime_stat                   500 # display runtime statistics such as dram utilization {<freq>:<flag>}
-liveness_message_freq                    1 # Minimum number of seconds between simulation liveness messages (0 = always print)
-gpgpu_flush_l1_cache                    0 # Flush L1 cache at the end of each kernel call
-gpgpu_flush_l2_cache                    0 # Flush L2 cache at the end of each kernel call
-gpgpu_deadlock_detect                    0 # Stop the simulation at deadlock (1=on (default), 0=off)
-gpgpu_ptx_instruction_classification                    0 # if enabled will classify ptx instruction types per kernel (Max 255 kernels now)
-gpgpu_ptx_sim_mode                     0 # Select between Performance (default) or Functional simulation (1)
-gpgpu_clock_domains 1481.0:2962.0:1481.0:2750.0 # Clock Domain Frequencies in MhZ {<Core Clock>:<ICNT Clock>:<L2 Clock>:<DRAM Clock>}
-gpgpu_max_concurrent_kernel                    8 # maximum kernels that can run concurrently on GPU
-gpgpu_cflog_interval                    0 # Interval between each snapshot in control flow logger
-visualizer_enabled                     0 # Turn on visualizer output (1=On, 0=Off)
-visualizer_outputfile                 NULL # Specifies the output log file for visualizer
-visualizer_zlevel                      6 # Compression level of the visualizer output log (0=no comp, 9=highest)
-trace_enabled                          0 # Turn on traces
-trace_components                    none # comma seperated list of traces to enable. Complete list found in trace_streams.tup. Default none
-trace_sampling_core                    0 # The core which is printed using CORE_DPRINTF. Default 0
-trace_sampling_memory_partition                   -1 # The memory partition which is printed using MEMPART_DPRINTF. Default -1 (i.e. all)
-gddr_size                      10.9091MB # Size of GDDR in MB/GB.(GLOBAL_HEAP_START, GLOBAL_HEAP_START + gddr_size) would be used for unmanged memory, (GLOBAL_HEAP_START + gddr_size, GLOBAL_HEAP_START + gddr_size*2) would be used for managed memory. 
-page_table_walk_latency                  100 # Average page table walk latency (in core cycle).
-eviction_policy                        3 # Select page eviction policy
-invalidate_clean                       0 # Should directly invalidate clean pages
-reserve_accessed_page_percent                    0 # Percentage of accessed pages reserved from eviction in hope that they will be accessed in next iteration.
-percentage_of_free_page_buffer                    0 # Percentage of free page buffer to trigger the page eviction.
-page_size                            4KB # GDDR page size, only 4KB/2MB avaliable.
-pcie_bandwidth                  16.0GB/s # PCI-e bandwidth per direction, in GB/s.
-enable_dma                             0 # Enable direct access to CPU memory
-multiply_dma_penalty                    2 # Oversubscription Multiplicative Penalty Factor for Adaptive DMA
-migrate_threshold                      8 # Access counter threshold for migrating the page from cpu to gpu
-sim_prof_enable                        1 # Enable gpgpu-sim profiler
-hardware_prefetch                      1 # Select gpgpu-sim hardware prefetcher
-hwprefetch_oversub                     3 # Select gpgpu-sim hardware prefetcher under over-subscription
-page_fault_latency                 66645 # Average fault latency (in core cycle).
-enable_accurate_simulation                    0 # Enable page fault functional simulation.
-enable_ptx_file_line_stats                    1 # Turn on PTX source line statistic profiling. (1 = On)
-ptx_line_stats_filename gpgpu_inst_stats.txt # Output file for PTX source line statistics.
-gpgpu_kernel_launch_latency               222150 # Kernel launch latency in cycles. Default: 0
-gpgpu_cdp_enabled                      0 # Turn on CDP
-save_embedded_ptx                      0 # saves ptx files embedded in binary as <n>.ptx
-keep                                   0 # keep intermediate files created by GPGPU-Sim when interfacing with external programs
-gpgpu_ptx_save_converted_ptxplus                    0 # Saved converted ptxplus to a file
-ptx_opcode_latency_int         4,13,4,5,145 # Opcode latencies for integers <ADD,MAX,MUL,MAD,DIV>Default 1,1,19,25,145
-ptx_opcode_latency_fp          4,13,4,5,39 # Opcode latencies for single precision floating points <ADD,MAX,MUL,MAD,DIV>Default 1,1,1,1,30
-ptx_opcode_latency_dp         8,19,8,8,330 # Opcode latencies for double precision floating points <ADD,MAX,MUL,MAD,DIV>Default 8,8,8,8,335
-ptx_opcode_initiation_int            1,2,2,2,8 # Opcode initiation intervals for integers <ADD,MAX,MUL,MAD,DIV>Default 1,1,4,4,32
-ptx_opcode_initiation_fp            1,2,1,1,4 # Opcode initiation intervals for single precision floating points <ADD,MAX,MUL,MAD,DIV>Default 1,1,1,1,5
-ptx_opcode_initiation_dp          1,2,1,1,130 # Opcode initiation intervals for double precision floating points <ADD,MAX,MUL,MAD,DIV>Default 8,8,8,8,130
-cdp_latency         7200,8000,100,12000,1600 # CDP API latency <cudaStreamCreateWithFlags, cudaGetParameterBufferV2_init_perWarp, cudaGetParameterBufferV2_perKernel, cudaLaunchDeviceV2_init_perWarp, cudaLaunchDevicV2_perKernel>Default 7200,8000,100,12000,1600
DRAM Timing Options:
nbk                                    16 # number of banks
CCD                                     2 # column to column delay
RRD                                     6 # minimal delay between activation of rows in different banks
RCD                                    12 # row to column delay
RAS                                    28 # time needed to activate row
RP                                     12 # time needed to precharge (deactivate) row
RC                                     40 # row cycle time
CDLR                                    5 # switching from write to read (changes tWTR)
WR                                     12 # last data-in to row precharge
CL                                     12 # CAS latency
WL                                      4 # Write latency
nbkgrp                                  1 # number of bank groups
CCDL                                    0 # column to column delay between accesses to different bank groups
RTPL                                    0 # read to precharge delay between accesses to different bank groups
Total number of memory sub partition = 22
addr_dec_mask[CHIP]  = 0000000000000000 	high:64 low:0
addr_dec_mask[BK]    = 0000000000007080 	high:15 low:7
addr_dec_mask[ROW]   = 000000000fff8000 	high:28 low:15
addr_dec_mask[COL]   = 0000000000000f7f 	high:12 low:0
addr_dec_mask[BURST] = 000000000000001f 	high:5 low:0
sub_partition_id_mask = 0000000000000080
GPGPU-Sim uArch: clock freqs: 1481000000.000000:2962000000.000000:1481000000.000000:2750000000.000000
GPGPU-Sim uArch: clock periods: 0.00000000067521944632:0.00000000033760972316:0.00000000067521944632:0.00000000036363636364
*** Initializing Memory Statistics ***
GPGPU-Sim uArch: interconnect node map (shaderID+MemID to icntID)
GPGPU-Sim uArch: Memory nodes ID start from index: 28
GPGPU-Sim uArch:    0   1   2   3   4   5   6
GPGPU-Sim uArch:    7   8   9  10  11  12  13
GPGPU-Sim uArch:   14  15  16  17  18  19  20
GPGPU-Sim uArch:   21  22  23  24  25  26  27
GPGPU-Sim uArch:   28  29  30  31  32  33  34
GPGPU-Sim uArch:   35  36  37  38  39  40  41
GPGPU-Sim uArch:   42  43  44  45  46  47  48
GPGPU-Sim uArch:   49
GPGPU-Sim uArch: interconnect node reverse map (icntID to shaderID+MemID)
GPGPU-Sim uArch: Memory nodes start from ID: 28
GPGPU-Sim uArch:    0   1   2   3   4   5   6
GPGPU-Sim uArch:    7   8   9  10  11  12  13
GPGPU-Sim uArch:   14  15  16  17  18  19  20
GPGPU-Sim uArch:   21  22  23  24  25  26  27
GPGPU-Sim uArch:   28  29  30  31  32  33  34
GPGPU-Sim uArch:   35  36  37  38  39  40  41
GPGPU-Sim uArch:   42  43  44  45  46  47  48
GPGPU-Sim uArch:   49
c495582b9ed8b8141667c44ac8a11087  /root/gpgpu-sim_UVMSmart/benchmarks/Managed/hotspot/hotspot
GPGPU-Sim uArch: performance model initialization complete.
GPGPU-Sim PTX: __cudaRegisterFatBinary, fat_cubin_handle = 1, filename=default
self exe links to: /root/gpgpu-sim_UVMSmart/benchmarks/Managed/hotspot/hotspot
Running md5sum using "md5sum /root/gpgpu-sim_UVMSmart/benchmarks/Managed/hotspot/hotspot "
Parsing file _cuobjdump_complete_output_INOUXp
######### cuobjdump parser ########
## Adding new section ELF
Adding arch: sm_20
Adding identifier: default
## Adding new section ELF
Adding arch: sm_20
Adding identifier: default
## Adding new section PTX
Adding ptx filename: _cuobjdump_1.ptx
Adding arch: sm_20
Adding identifier: default
Done parsing!!!
GPGPU-Sim PTX: __cudaRegisterFunction _Z14calculate_tempiPfS_S_iiiiffffff : hostFun 0x0x401ae2, fat_cubin_handle = 1
GPGPU-Sim PTX: allocating shared region for "_Z14calculate_tempiPfS_S_iiiiffffff$__cuda_local_var_16165_39_non_const_temp_on_cuda" from 0x0 to 0x400 (shared memory space)
GPGPU-Sim PTX: allocating shared region for "_Z14calculate_tempiPfS_S_iiiiffffff$__cuda_local_var_16166_39_non_const_power_on_cuda" from 0x400 to 0x800 (shared memory space)
GPGPU-Sim PTX: allocating shared region for "_Z14calculate_tempiPfS_S_iiiiffffff$__cuda_local_var_16167_39_non_const_temp_t" from 0x800 to 0xc00 (shared memory space)
GPGPU-Sim PTX: instruction assembly for function '_Z14calculate_tempiPfS_S_iiiiffffff'...   done.
GPGPU-Sim PTX: finding reconvergence points for '_Z14calculate_tempiPfS_S_iiiiffffff'...
GPGPU-Sim PTX: Finding dominators for '_Z14calculate_tempiPfS_S_iiiiffffff'...
GPGPU-Sim PTX: Finding immediate dominators for '_Z14calculate_tempiPfS_S_iiiiffffff'...
GPGPU-Sim PTX: Finding postdominators for '_Z14calculate_tempiPfS_S_iiiiffffff'...
GPGPU-Sim PTX: Finding immediate postdominators for '_Z14calculate_tempiPfS_S_iiiiffffff'...
GPGPU-Sim PTX: pre-decoding instructions for '_Z14calculate_tempiPfS_S_iiiiffffff'...
GPGPU-Sim PTX: reconvergence points for _Z14calculate_tempiPfS_S_iiiiffffff...
GPGPU-Sim PTX:  1 (potential) branch divergence @  PC=0x118 (_1.ptx:82) @!%p7 bra BB0_2;
GPGPU-Sim PTX:    immediate post dominator      @  PC=0x1b8 (_1.ptx:106) bar.sync 0;
GPGPU-Sim PTX:  2 (potential) branch divergence @  PC=0x120 (_1.ptx:83) bra.uni BB0_1;
GPGPU-Sim PTX:    immediate post dominator      @  PC=0x128 (_1.ptx:86) mad.lo.s32 %r27, %r1, %r10, %r2;
GPGPU-Sim PTX:  3 (potential) branch divergence @  PC=0x1c8 (_1.ptx:108) @%p8 bra BB0_11;
GPGPU-Sim PTX:    immediate post dominator      @  PC=0x5b0 (_1.ptx:247) and.b16 %rs7, %rs8, 255;
GPGPU-Sim PTX:  4 (potential) branch divergence @  PC=0x338 (_1.ptx:157) @!%p15 bra BB0_7;
GPGPU-Sim PTX:    immediate post dominator      @  PC=0x538 (_1.ptx:226) bar.sync 0;
GPGPU-Sim PTX:  5 (potential) branch divergence @  PC=0x340 (_1.ptx:158) bra.uni BB0_5;
GPGPU-Sim PTX:    immediate post dominator      @  PC=0x348 (_1.ptx:161) setp.gt.s32%p16, %r23, %r6;
GPGPU-Sim PTX:  6 (potential) branch divergence @  PC=0x3d0 (_1.ptx:178) @%p28 bra BB0_7;
GPGPU-Sim PTX:    immediate post dominator      @  PC=0x538 (_1.ptx:226) bar.sync 0;
GPGPU-Sim PTX:  7 (potential) branch divergence @  PC=0x548 (_1.ptx:228) @%p31 bra BB0_11;
GPGPU-Sim PTX:    immediate post dominator      @  PC=0x5b0 (_1.ptx:247) and.b16 %rs7, %rs8, 255;
GPGPU-Sim PTX:  8 (potential) branch divergence @  PC=0x558 (_1.ptx:231) @%p32 bra BB0_10;
GPGPU-Sim PTX:    immediate post dominator      @  PC=0x590 (_1.ptx:241) bar.sync 0;
GPGPU-Sim PTX:  9 (potential) branch divergence @  PC=0x5a8 (_1.ptx:244) @%p33 bra BB0_4;
GPGPU-Sim PTX:    immediate post dominator      @  PC=0x5b0 (_1.ptx:247) and.b16 %rs7, %rs8, 255;
GPGPU-Sim PTX: 10 (potential) branch divergence @  PC=0x5c0 (_1.ptx:249) @%p34 bra BB0_13;
GPGPU-Sim PTX:    immediate post dominator      @  PC=0x620 (_1.ptx:264) ret;
GPGPU-Sim PTX: ... end of reconvergence points for _Z14calculate_tempiPfS_S_iiiiffffff
GPGPU-Sim PTX: ... done pre-decoding instructions for '_Z14calculate_tempiPfS_S_iiiiffffff'.
GPGPU-Sim PTX: finished parsing EMBEDDED .ptx file _1.ptx
Adding _cuobjdump_1.ptx with cubin handle 1
GPGPU-Sim PTX: extracting embedded .ptx to temporary file "_ptx_w6WzKC"
Running: cat _ptx_w6WzKC | sed 's/.version 1.5/.version 1.4/' | sed 's/, texmode_independent//' | sed 's/\(\.extern \.const\[1\] .b8 \w\+\)\[\]/\1\[1\]/' | sed 's/const\[.\]/const\[0\]/g' > _ptx2_6U7fxP
GPGPU-Sim PTX: generating ptxinfo using "$CUDA_INSTALL_PATH/bin/ptxas --gpu-name=sm_20 -v _ptx2_6U7fxP --output-file  /dev/null 2> _ptx_w6WzKCinfo"
GPGPU-Sim PTX: Kernel '_Z14calculate_tempiPfS_S_iiiiffffff' : regs=34, lmem=0, smem=3072, cmem=120
GPGPU-Sim PTX: removing ptxinfo using "rm -f _ptx_w6WzKC _ptx2_6U7fxP _ptx_w6WzKCinfo"
GPGPU-Sim PTX: loading globals with explicit initializers... 
GPGPU-Sim PTX: finished loading globals (0 bytes total).
GPGPU-Sim PTX: loading constants with explicit initializers...  done.
WG size of kernel = 16 X 16
pyramidHeight: 2
gridSize: [1024, 1024]
border:[2, 2]
blockGrid:[86, 86]
targetBlock:[12, 12]
Start computing the transient temperature

GPGPU-Sim PTX: cudaLaunch for 0x0x401ae2 (mode=performance simulation) on stream 0
GPGPU-Sim PTX: pushing kernel '_Z14calculate_tempiPfS_S_iiiiffffff' to stream 0, gridDim= (86,86,1) blockDim = (16,16,1) 
GPGPU-Sim uArch: Shader 1 bind to kernel 1 '_Z14calculate_tempiPfS_S_iiiiffffff'
GPGPU-Sim uArch: CTA/core = 7, limited by: regs
GPGPU-Sim uArch: Shader 2 bind to kernel 1 '_Z14calculate_tempiPfS_S_iiiiffffff'
GPGPU-Sim uArch: Shader 3 bind to kernel 1 '_Z14calculate_tempiPfS_S_iiiiffffff'
GPGPU-Sim uArch: Shader 4 bind to kernel 1 '_Z14calculate_tempiPfS_S_iiiiffffff'
GPGPU-Sim uArch: Shader 5 bind to kernel 1 '_Z14calculate_tempiPfS_S_iiiiffffff'
GPGPU-Sim uArch: Shader 6 bind to kernel 1 '_Z14calculate_tempiPfS_S_iiiiffffff'
GPGPU-Sim uArch: Shader 7 bind to kernel 1 '_Z14calculate_tempiPfS_S_iiiiffffff'
GPGPU-Sim uArch: Shader 8 bind to kernel 1 '_Z14calculate_tempiPfS_S_iiiiffffff'
GPGPU-Sim uArch: Shader 9 bind to kernel 1 '_Z14calculate_tempiPfS_S_iiiiffffff'
GPGPU-Sim uArch: Shader 10 bind to kernel 1 '_Z14calculate_tempiPfS_S_iiiiffffff'
GPGPU-Sim uArch: Shader 11 bind to kernel 1 '_Z14calculate_tempiPfS_S_iiiiffffff'
GPGPU-Sim uArch: Shader 12 bind to kernel 1 '_Z14calculate_tempiPfS_S_iiiiffffff'
GPGPU-Sim uArch: Shader 13 bind to kernel 1 '_Z14calculate_tempiPfS_S_iiiiffffff'
GPGPU-Sim uArch: Shader 14 bind to kernel 1 '_Z14calculate_tempiPfS_S_iiiiffffff'
GPGPU-Sim uArch: Shader 15 bind to kernel 1 '_Z14calculate_tempiPfS_S_iiiiffffff'
GPGPU-Sim uArch: Shader 16 bind to kernel 1 '_Z14calculate_tempiPfS_S_iiiiffffff'
GPGPU-Sim uArch: Shader 17 bind to kernel 1 '_Z14calculate_tempiPfS_S_iiiiffffff'
GPGPU-Sim uArch: Shader 18 bind to kernel 1 '_Z14calculate_tempiPfS_S_iiiiffffff'
GPGPU-Sim uArch: Shader 19 bind to kernel 1 '_Z14calculate_tempiPfS_S_iiiiffffff'
GPGPU-Sim uArch: Shader 20 bind to kernel 1 '_Z14calculate_tempiPfS_S_iiiiffffff'
GPGPU-Sim uArch: Shader 21 bind to kernel 1 '_Z14calculate_tempiPfS_S_iiiiffffff'
GPGPU-Sim uArch: Shader 22 bind to kernel 1 '_Z14calculate_tempiPfS_S_iiiiffffff'
GPGPU-Sim uArch: Shader 23 bind to kernel 1 '_Z14calculate_tempiPfS_S_iiiiffffff'
GPGPU-Sim uArch: Shader 24 bind to kernel 1 '_Z14calculate_tempiPfS_S_iiiiffffff'
GPGPU-Sim uArch: Shader 25 bind to kernel 1 '_Z14calculate_tempiPfS_S_iiiiffffff'
GPGPU-Sim uArch: Shader 26 bind to kernel 1 '_Z14calculate_tempiPfS_S_iiiiffffff'
GPGPU-Sim uArch: Shader 27 bind to kernel 1 '_Z14calculate_tempiPfS_S_iiiiffffff'
GPGPU-Sim uArch: Shader 0 bind to kernel 1 '_Z14calculate_tempiPfS_S_iiiiffffff'
GPGPU-Sim uArch: Shader 1 bind to kernel 1 '_Z14calculate_tempiPfS_S_iiiiffffff'
GPGPU-Sim uArch: Shader 2 bind to kernel 1 '_Z14calculate_tempiPfS_S_iiiiffffff'
GPGPU-Sim uArch: Shader 3 bind to kernel 1 '_Z14calculate_tempiPfS_S_iiiiffffff'
GPGPU-Sim uArch: Shader 4 bind to kernel 1 '_Z14calculate_tempiPfS_S_iiiiffffff'
GPGPU-Sim uArch: Shader 7 bind to kernel 1 '_Z14calculate_tempiPfS_S_iiiiffffff'
GPGPU-Sim uArch: Shader 13 bind to kernel 1 '_Z14calculate_tempiPfS_S_iiiiffffff'
GPGPU-Sim uArch: Shader 15 bind to kernel 1 '_Z14calculate_tempiPfS_S_iiiiffffff'
GPGPU-Sim uArch: Shader 17 bind to kernel 1 '_Z14calculate_tempiPfS_S_iiiiffffff'
GPGPU-Sim uArch: Shader 18 bind to kernel 1 '_Z14calculate_tempiPfS_S_iiiiffffff'
GPGPU-Sim uArch: Shader 21 bind to kernel 1 '_Z14calculate_tempiPfS_S_iiiiffffff'
GPGPU-Sim uArch: Shader 24 bind to kernel 1 '_Z14calculate_tempiPfS_S_iiiiffffff'
GPGPU-Sim uArch: Shader 25 bind to kernel 1 '_Z14calculate_tempiPfS_S_iiiiffffff'
GPGPU-Sim uArch: Shader 27 bind to kernel 1 '_Z14calculate_tempiPfS_S_iiiiffffff'
GPGPU-Sim uArch: Shader 0 bind to kernel 1 '_Z14calculate_tempiPfS_S_iiiiffffff'
GPGPU-Sim uArch: Shader 14 bind to kernel 1 '_Z14calculate_tempiPfS_S_iiiiffffff'
GPGPU-Sim uArch: Shader 15 bind to kernel 1 '_Z14calculate_tempiPfS_S_iiiiffffff'
GPGPU-Sim uArch: Shader 18 bind to kernel 1 '_Z14calculate_tempiPfS_S_iiiiffffff'
GPGPU-Sim uArch: Shader 22 bind to kernel 1 '_Z14calculate_tempiPfS_S_iiiiffffff'
GPGPU-Sim uArch: Shader 23 bind to kernel 1 '_Z14calculate_tempiPfS_S_iiiiffffff'
GPGPU-Sim uArch: Shader 27 bind to kernel 1 '_Z14calculate_tempiPfS_S_iiiiffffff'
GPGPU-Sim uArch: Shader 4 bind to kernel 1 '_Z14calculate_tempiPfS_S_iiiiffffff'
GPGPU-Sim uArch: Shader 8 bind to kernel 1 '_Z14calculate_tempiPfS_S_iiiiffffff'
GPGPU-Sim uArch: Shader 11 bind to kernel 1 '_Z14calculate_tempiPfS_S_iiiiffffff'
GPGPU-Sim uArch: Shader 12 bind to kernel 1 '_Z14calculate_tempiPfS_S_iiiiffffff'
GPGPU-Sim uArch: Shader 13 bind to kernel 1 '_Z14calculate_tempiPfS_S_iiiiffffff'
GPGPU-Sim uArch: Shader 15 bind to kernel 1 '_Z14calculate_tempiPfS_S_iiiiffffff'
GPGPU-Sim uArch: Shader 20 bind to kernel 1 '_Z14calculate_tempiPfS_S_iiiiffffff'
GPGPU-Sim uArch: Shader 24 bind to kernel 1 '_Z14calculate_tempiPfS_S_iiiiffffff'
GPGPU-Sim uArch: Shader 4 bind to kernel 1 '_Z14calculate_tempiPfS_S_iiiiffffff'
GPGPU-Sim uArch: Shader 6 bind to kernel 1 '_Z14calculate_tempiPfS_S_iiiiffffff'
GPGPU-Sim uArch: Shader 12 bind to kernel 1 '_Z14calculate_tempiPfS_S_iiiiffffff'
GPGPU-Sim uArch: Shader 13 bind to kernel 1 '_Z14calculate_tempiPfS_S_iiiiffffff'
GPGPU-Sim uArch: Shader 22 bind to kernel 1 '_Z14calculate_tempiPfS_S_iiiiffffff'
GPGPU-Sim uArch: Shader 24 bind to kernel 1 '_Z14calculate_tempiPfS_S_iiiiffffff'
GPGPU-Sim uArch: Shader 9 bind to kernel 1 '_Z14calculate_tempiPfS_S_iiiiffffff'
GPGPU-Sim uArch: Shader 10 bind to kernel 1 '_Z14calculate_tempiPfS_S_iiiiffffff'
GPGPU-Sim uArch: Shader 11 bind to kernel 1 '_Z14calculate_tempiPfS_S_iiiiffffff'
GPGPU-Sim uArch: Shader 12 bind to kernel 1 '_Z14calculate_tempiPfS_S_iiiiffffff'
GPGPU-Sim uArch: Shader 13 bind to kernel 1 '_Z14calculate_tempiPfS_S_iiiiffffff'
GPGPU-Sim uArch: Shader 15 bind to kernel 1 '_Z14calculate_tempiPfS_S_iiiiffffff'
GPGPU-Sim uArch: Shader 16 bind to kernel 1 '_Z14calculate_tempiPfS_S_iiiiffffff'
GPGPU-Sim uArch: Shader 18 bind to kernel 1 '_Z14calculate_tempiPfS_S_iiiiffffff'
GPGPU-Sim uArch: Shader 19 bind to kernel 1 '_Z14calculate_tempiPfS_S_iiiiffffff'
GPGPU-Sim uArch: Shader 20 bind to kernel 1 '_Z14calculate_tempiPfS_S_iiiiffffff'
GPGPU-Sim uArch: Shader 22 bind to kernel 1 '_Z14calculate_tempiPfS_S_iiiiffffff'
GPGPU-Sim uArch: Shader 24 bind to kernel 1 '_Z14calculate_tempiPfS_S_iiiiffffff'
GPGPU-Sim uArch: Shader 26 bind to kernel 1 '_Z14calculate_tempiPfS_S_iiiiffffff'
GPGPU-Sim uArch: Shader 27 bind to kernel 1 '_Z14calculate_tempiPfS_S_iiiiffffff'
GPGPU-Sim uArch: Shader 0 bind to kernel 1 '_Z14calculate_tempiPfS_S_iiiiffffff'
GPGPU-Sim uArch: Shader 1 bind to kernel 1 '_Z14calculate_tempiPfS_S_iiiiffffff'
GPGPU-Sim uArch: Shader 4 bind to kernel 1 '_Z14calculate_tempiPfS_S_iiiiffffff'
GPGPU-Sim uArch: Shader 6 bind to kernel 1 '_Z14calculate_tempiPfS_S_iiiiffffff'
GPGPU-Sim uArch: Shader 7 bind to kernel 1 '_Z14calculate_tempiPfS_S_iiiiffffff'
GPGPU-Sim uArch: Shader 9 bind to kernel 1 '_Z14calculate_tempiPfS_S_iiiiffffff'
GPGPU-Sim uArch: Shader 14 bind to kernel 1 '_Z14calculate_tempiPfS_S_iiiiffffff'
GPGPU-Sim uArch: Shader 17 bind to kernel 1 '_Z14calculate_tempiPfS_S_iiiiffffff'
GPGPU-Sim uArch: Shader 21 bind to kernel 1 '_Z14calculate_tempiPfS_S_iiiiffffff'
GPGPU-Sim uArch: Shader 23 bind to kernel 1 '_Z14calculate_tempiPfS_S_iiiiffffff'
GPGPU-Sim uArch: Shader 25 bind to kernel 1 '_Z14calculate_tempiPfS_S_iiiiffffff'
GPGPU-Sim uArch: Shader 3 bind to kernel 1 '_Z14calculate_tempiPfS_S_iiiiffffff'
GPGPU-Sim uArch: Shader 5 bind to kernel 1 '_Z14calculate_tempiPfS_S_iiiiffffff'
GPGPU-Sim uArch: Shader 7 bind to kernel 1 '_Z14calculate_tempiPfS_S_iiiiffffff'
GPGPU-Sim uArch: Shader 22 bind to kernel 1 '_Z14calculate_tempiPfS_S_iiiiffffff'
GPGPU-Sim uArch: Shader 27 bind to kernel 1 '_Z14calculate_tempiPfS_S_iiiiffffff'
GPGPU-Sim uArch: Shader 0 bind to kernel 1 '_Z14calculate_tempiPfS_S_iiiiffffff'
GPGPU-Sim uArch: Shader 1 bind to kernel 1 '_Z14calculate_tempiPfS_S_iiiiffffff'
GPGPU-Sim uArch: Shader 2 bind to kernel 1 '_Z14calculate_tempiPfS_S_iiiiffffff'
GPGPU-Sim uArch: Shader 3 bind to kernel 1 '_Z14calculate_tempiPfS_S_iiiiffffff'
GPGPU-Sim uArch: Shader 4 bind to kernel 1 '_Z14calculate_tempiPfS_S_iiiiffffff'
GPGPU-Sim uArch: Shader 5 bind to kernel 1 '_Z14calculate_tempiPfS_S_iiiiffffff'
GPGPU-Sim uArch: Shader 6 bind to kernel 1 '_Z14calculate_tempiPfS_S_iiiiffffff'
GPGPU-Sim uArch: Shader 7 bind to kernel 1 '_Z14calculate_tempiPfS_S_iiiiffffff'
GPGPU-Sim uArch: Shader 8 bind to kernel 1 '_Z14calculate_tempiPfS_S_iiiiffffff'
GPGPU-Sim uArch: Shader 9 bind to kernel 1 '_Z14calculate_tempiPfS_S_iiiiffffff'
GPGPU-Sim uArch: Shader 10 bind to kernel 1 '_Z14calculate_tempiPfS_S_iiiiffffff'
GPGPU-Sim uArch: Shader 11 bind to kernel 1 '_Z14calculate_tempiPfS_S_iiiiffffff'
GPGPU-Sim uArch: Shader 12 bind to kernel 1 '_Z14calculate_tempiPfS_S_iiiiffffff'
GPGPU-Sim uArch: Shader 13 bind to kernel 1 '_Z14calculate_tempiPfS_S_iiiiffffff'
GPGPU-Sim uArch: Shader 14 bind to kernel 1 '_Z14calculate_tempiPfS_S_iiiiffffff'
GPGPU-Sim uArch: Shader 15 bind to kernel 1 '_Z14calculate_tempiPfS_S_iiiiffffff'
GPGPU-Sim uArch: Shader 16 bind to kernel 1 '_Z14calculate_tempiPfS_S_iiiiffffff'
GPGPU-Sim uArch: Shader 17 bind to kernel 1 '_Z14calculate_tempiPfS_S_iiiiffffff'
GPGPU-Sim uArch: Shader 18 bind to kernel 1 '_Z14calculate_tempiPfS_S_iiiiffffff'
GPGPU-Sim uArch: Shader 19 bind to kernel 1 '_Z14calculate_tempiPfS_S_iiiiffffff'
GPGPU-Sim uArch: Shader 20 bind to kernel 1 '_Z14calculate_tempiPfS_S_iiiiffffff'
GPGPU-Sim uArch: Shader 21 bind to kernel 1 '_Z14calculate_tempiPfS_S_iiiiffffff'
GPGPU-Sim uArch: Shader 22 bind to kernel 1 '_Z14calculate_tempiPfS_S_iiiiffffff'
GPGPU-Sim uArch: Shader 23 bind to kernel 1 '_Z14calculate_tempiPfS_S_iiiiffffff'
GPGPU-Sim uArch: Shader 24 bind to kernel 1 '_Z14calculate_tempiPfS_S_iiiiffffff'
GPGPU-Sim uArch: Shader 25 bind to kernel 1 '_Z14calculate_tempiPfS_S_iiiiffffff'
GPGPU-Sim uArch: Shader 26 bind to kernel 1 '_Z14calculate_tempiPfS_S_iiiiffffff'
GPGPU-Sim uArch: Shader 27 bind to kernel 1 '_Z14calculate_tempiPfS_S_iiiiffffff'
GPGPU-Sim uArch: Shader 8 bind to kernel 1 '_Z14calculate_tempiPfS_S_iiiiffffff'
GPGPU-Sim uArch: Shader 9 bind to kernel 1 '_Z14calculate_tempiPfS_S_iiiiffffff'
GPGPU-Sim uArch: Shader 10 bind to kernel 1 '_Z14calculate_tempiPfS_S_iiiiffffff'
GPGPU-Sim uArch: Shader 11 bind to kernel 1 '_Z14calculate_tempiPfS_S_iiiiffffff'
GPGPU-Sim uArch: Shader 12 bind to kernel 1 '_Z14calculate_tempiPfS_S_iiiiffffff'
GPGPU-Sim uArch: Shader 13 bind to kernel 1 '_Z14calculate_tempiPfS_S_iiiiffffff'
GPGPU-Sim uArch: Shader 14 bind to kernel 1 '_Z14calculate_tempiPfS_S_iiiiffffff'
GPGPU-Sim uArch: Shader 15 bind to kernel 1 '_Z14calculate_tempiPfS_S_iiiiffffff'
GPGPU-Sim uArch: Shader 17 bind to kernel 1 '_Z14calculate_tempiPfS_S_iiiiffffff'
GPGPU-Sim uArch: Shader 18 bind to kernel 1 '_Z14calculate_tempiPfS_S_iiiiffffff'
GPGPU-Sim uArch: Shader 19 bind to kernel 1 '_Z14calculate_tempiPfS_S_iiiiffffff'
GPGPU-Sim uArch: Shader 20 bind to kernel 1 '_Z14calculate_tempiPfS_S_iiiiffffff'
GPGPU-Sim uArch: Shader 21 bind to kernel 1 '_Z14calculate_tempiPfS_S_iiiiffffff'
GPGPU-Sim uArch: Shader 22 bind to kernel 1 '_Z14calculate_tempiPfS_S_iiiiffffff'
GPGPU-Sim uArch: Shader 24 bind to kernel 1 '_Z14calculate_tempiPfS_S_iiiiffffff'
GPGPU-Sim uArch: Shader 25 bind to kernel 1 '_Z14calculate_tempiPfS_S_iiiiffffff'
GPGPU-Sim uArch: Shader 26 bind to kernel 1 '_Z14calculate_tempiPfS_S_iiiiffffff'
GPGPU-Sim uArch: Shader 27 bind to kernel 1 '_Z14calculate_tempiPfS_S_iiiiffffff'
GPGPU-Sim uArch: Shader 18 bind to kernel 1 '_Z14calculate_tempiPfS_S_iiiiffffff'
GPGPU-Sim uArch: Shader 19 bind to kernel 1 '_Z14calculate_tempiPfS_S_iiiiffffff'
GPGPU-Sim uArch: Shader 20 bind to kernel 1 '_Z14calculate_tempiPfS_S_iiiiffffff'
GPGPU-Sim uArch: Shader 21 bind to kernel 1 '_Z14calculate_tempiPfS_S_iiiiffffff'
GPGPU-Sim uArch: Shader 22 bind to kernel 1 '_Z14calculate_tempiPfS_S_iiiiffffff'
GPGPU-Sim uArch: Shader 23 bind to kernel 1 '_Z14calculate_tempiPfS_S_iiiiffffff'
GPGPU-Sim uArch: Shader 24 bind to kernel 1 '_Z14calculate_tempiPfS_S_iiiiffffff'
GPGPU-Sim uArch: Shader 25 bind to kernel 1 '_Z14calculate_tempiPfS_S_iiiiffffff'
GPGPU-Sim uArch: Shader 26 bind to kernel 1 '_Z14calculate_tempiPfS_S_iiiiffffff'
GPGPU-Sim uArch: Shader 27 bind to kernel 1 '_Z14calculate_tempiPfS_S_iiiiffffff'
GPGPU-Sim uArch: Shader 0 bind to kernel 1 '_Z14calculate_tempiPfS_S_iiiiffffff'
GPGPU-Sim uArch: Shader 1 bind to kernel 1 '_Z14calculate_tempiPfS_S_iiiiffffff'
GPGPU-Sim uArch: Shader 2 bind to kernel 1 '_Z14calculate_tempiPfS_S_iiiiffffff'
GPGPU-Sim uArch: Shader 3 bind to kernel 1 '_Z14calculate_tempiPfS_S_iiiiffffff'
GPGPU-Sim uArch: Shader 4 bind to kernel 1 '_Z14calculate_tempiPfS_S_iiiiffffff'
GPGPU-Sim uArch: Shader 5 bind to kernel 1 '_Z14calculate_tempiPfS_S_iiiiffffff'
GPGPU-Sim uArch: Shader 6 bind to kernel 1 '_Z14calculate_tempiPfS_S_iiiiffffff'
GPGPU-Sim uArch: Shader 7 bind to kernel 1 '_Z14calculate_tempiPfS_S_iiiiffffff'
GPGPU-Sim uArch: Shader 8 bind to kernel 1 '_Z14calculate_tempiPfS_S_iiiiffffff'
GPGPU-Sim uArch: Shader 9 bind to kernel 1 '_Z14calculate_tempiPfS_S_iiiiffffff'
GPGPU-Sim uArch: Shader 10 bind to kernel 1 '_Z14calculate_tempiPfS_S_iiiiffffff'
GPGPU-Sim uArch: Shader 11 bind to kernel 1 '_Z14calculate_tempiPfS_S_iiiiffffff'
GPGPU-Sim uArch: Shader 12 bind to kernel 1 '_Z14calculate_tempiPfS_S_iiiiffffff'
GPGPU-Sim uArch: Shader 13 bind to kernel 1 '_Z14calculate_tempiPfS_S_iiiiffffff'
GPGPU-Sim uArch: Shader 14 bind to kernel 1 '_Z14calculate_tempiPfS_S_iiiiffffff'
GPGPU-Sim uArch: Shader 15 bind to kernel 1 '_Z14calculate_tempiPfS_S_iiiiffffff'
GPGPU-Sim uArch: Shader 16 bind to kernel 1 '_Z14calculate_tempiPfS_S_iiiiffffff'
GPGPU-Sim uArch: Shader 17 bind to kernel 1 '_Z14calculate_tempiPfS_S_iiiiffffff'
GPGPU-Sim uArch: Shader 18 bind to kernel 1 '_Z14calculate_tempiPfS_S_iiiiffffff'
GPGPU-Sim uArch: Shader 19 bind to kernel 1 '_Z14calculate_tempiPfS_S_iiiiffffff'
GPGPU-Sim uArch: Shader 20 bind to kernel 1 '_Z14calculate_tempiPfS_S_iiiiffffff'
GPGPU-Sim uArch: Shader 21 bind to kernel 1 '_Z14calculate_tempiPfS_S_iiiiffffff'
GPGPU-Sim uArch: Shader 22 bind to kernel 1 '_Z14calculate_tempiPfS_S_iiiiffffff'
GPGPU-Sim uArch: Shader 23 bind to kernel 1 '_Z14calculate_tempiPfS_S_iiiiffffff'
GPGPU-Sim uArch: Shader 24 bind to kernel 1 '_Z14calculate_tempiPfS_S_iiiiffffff'
GPGPU-Sim uArch: Shader 25 bind to kernel 1 '_Z14calculate_tempiPfS_S_iiiiffffff'
GPGPU-Sim uArch: Shader 26 bind to kernel 1 '_Z14calculate_tempiPfS_S_iiiiffffff'
GPGPU-Sim uArch: Shader 27 bind to kernel 1 '_Z14calculate_tempiPfS_S_iiiiffffff'
GPGPU-Sim uArch: Shader 0 bind to kernel 1 '_Z14calculate_tempiPfS_S_iiiiffffff'
GPGPU-Sim uArch: Shader 1 bind to kernel 1 '_Z14calculate_tempiPfS_S_iiiiffffff'
GPGPU-Sim uArch: Shader 2 bind to kernel 1 '_Z14calculate_tempiPfS_S_iiiiffffff'
GPGPU-Sim uArch: Shader 3 bind to kernel 1 '_Z14calculate_tempiPfS_S_iiiiffffff'
GPGPU-Sim uArch: Shader 4 bind to kernel 1 '_Z14calculate_tempiPfS_S_iiiiffffff'
GPGPU-Sim uArch: Shader 5 bind to kernel 1 '_Z14calculate_tempiPfS_S_iiiiffffff'
GPGPU-Sim uArch: Shader 6 bind to kernel 1 '_Z14calculate_tempiPfS_S_iiiiffffff'
GPGPU-Sim uArch: Shader 7 bind to kernel 1 '_Z14calculate_tempiPfS_S_iiiiffffff'
GPGPU-Sim uArch: Shader 8 bind to kernel 1 '_Z14calculate_tempiPfS_S_iiiiffffff'
GPGPU-Sim uArch: Shader 9 bind to kernel 1 '_Z14calculate_tempiPfS_S_iiiiffffff'
GPGPU-Sim uArch: Shader 10 bind to kernel 1 '_Z14calculate_tempiPfS_S_iiiiffffff'
GPGPU-Sim uArch: Shader 11 bind to kernel 1 '_Z14calculate_tempiPfS_S_iiiiffffff'
GPGPU-Sim uArch: Shader 12 bind to kernel 1 '_Z14calculate_tempiPfS_S_iiiiffffff'
GPGPU-Sim uArch: Shader 13 bind to kernel 1 '_Z14calculate_tempiPfS_S_iiiiffffff'
GPGPU-Sim uArch: Shader 14 bind to kernel 1 '_Z14calculate_tempiPfS_S_iiiiffffff'
GPGPU-Sim uArch: Shader 15 bind to kernel 1 '_Z14calculate_tempiPfS_S_iiiiffffff'
GPGPU-Sim uArch: Shader 16 bind to kernel 1 '_Z14calculate_tempiPfS_S_iiiiffffff'
GPGPU-Sim uArch: Shader 17 bind to kernel 1 '_Z14calculate_tempiPfS_S_iiiiffffff'
GPGPU-Sim uArch: Shader 5 bind to kernel 1 '_Z14calculate_tempiPfS_S_iiiiffffff'
GPGPU-Sim uArch: Shader 6 bind to kernel 1 '_Z14calculate_tempiPfS_S_iiiiffffff'
GPGPU-Sim uArch: Shader 7 bind to kernel 1 '_Z14calculate_tempiPfS_S_iiiiffffff'
GPGPU-Sim uArch: Shader 8 bind to kernel 1 '_Z14calculate_tempiPfS_S_iiiiffffff'
GPGPU-Sim uArch: Shader 9 bind to kernel 1 '_Z14calculate_tempiPfS_S_iiiiffffff'
GPGPU-Sim uArch: Shader 10 bind to kernel 1 '_Z14calculate_tempiPfS_S_iiiiffffff'
GPGPU-Sim uArch: Shader 11 bind to kernel 1 '_Z14calculate_tempiPfS_S_iiiiffffff'
GPGPU-Sim uArch: Shader 12 bind to kernel 1 '_Z14calculate_tempiPfS_S_iiiiffffff'
GPGPU-Sim uArch: Shader 13 bind to kernel 1 '_Z14calculate_tempiPfS_S_iiiiffffff'
GPGPU-Sim uArch: Shader 14 bind to kernel 1 '_Z14calculate_tempiPfS_S_iiiiffffff'
GPGPU-Sim uArch: Shader 15 bind to kernel 1 '_Z14calculate_tempiPfS_S_iiiiffffff'
GPGPU-Sim uArch: Shader 16 bind to kernel 1 '_Z14calculate_tempiPfS_S_iiiiffffff'
GPGPU-Sim uArch: Shader 17 bind to kernel 1 '_Z14calculate_tempiPfS_S_iiiiffffff'
GPGPU-Sim uArch: Shader 18 bind to kernel 1 '_Z14calculate_tempiPfS_S_iiiiffffff'
GPGPU-Sim uArch: Shader 19 bind to kernel 1 '_Z14calculate_tempiPfS_S_iiiiffffff'
GPGPU-Sim uArch: Shader 20 bind to kernel 1 '_Z14calculate_tempiPfS_S_iiiiffffff'
GPGPU-Sim uArch: Shader 21 bind to kernel 1 '_Z14calculate_tempiPfS_S_iiiiffffff'
GPGPU-Sim uArch: Shader 22 bind to kernel 1 '_Z14calculate_tempiPfS_S_iiiiffffff'
GPGPU-Sim uArch: Shader 23 bind to kernel 1 '_Z14calculate_tempiPfS_S_iiiiffffff'
GPGPU-Sim uArch: Shader 24 bind to kernel 1 '_Z14calculate_tempiPfS_S_iiiiffffff'
GPGPU-Sim uArch: Shader 25 bind to kernel 1 '_Z14calculate_tempiPfS_S_iiiiffffff'
GPGPU-Sim uArch: Shader 26 bind to kernel 1 '_Z14calculate_tempiPfS_S_iiiiffffff'
GPGPU-Sim uArch: Shader 27 bind to kernel 1 '_Z14calculate_tempiPfS_S_iiiiffffff'
GPGPU-Sim uArch: Shader 0 bind to kernel 1 '_Z14calculate_tempiPfS_S_iiiiffffff'
GPGPU-Sim uArch: Shader 1 bind to kernel 1 '_Z14calculate_tempiPfS_S_iiiiffffff'
GPGPU-Sim uArch: Shader 2 bind to kernel 1 '_Z14calculate_tempiPfS_S_iiiiffffff'
GPGPU-Sim uArch: Shader 3 bind to kernel 1 '_Z14calculate_tempiPfS_S_iiiiffffff'
GPGPU-Sim uArch: Shader 4 bind to kernel 1 '_Z14calculate_tempiPfS_S_iiiiffffff'
GPGPU-Sim uArch: Shader 12 bind to kernel 1 '_Z14calculate_tempiPfS_S_iiiiffffff'
GPGPU-Sim uArch: Shader 16 bind to kernel 1 '_Z14calculate_tempiPfS_S_iiiiffffff'
GPGPU-Sim uArch: Shader 17 bind to kernel 1 '_Z14calculate_tempiPfS_S_iiiiffffff'
GPGPU-Sim uArch: Shader 18 bind to kernel 1 '_Z14calculate_tempiPfS_S_iiiiffffff'
GPGPU-Sim uArch: Shader 21 bind to kernel 1 '_Z14calculate_tempiPfS_S_iiiiffffff'
GPGPU-Sim uArch: Shader 22 bind to kernel 1 '_Z14calculate_tempiPfS_S_iiiiffffff'
GPGPU-Sim uArch: Shader 23 bind to kernel 1 '_Z14calculate_tempiPfS_S_iiiiffffff'
GPGPU-Sim uArch: Shader 24 bind to kernel 1 '_Z14calculate_tempiPfS_S_iiiiffffff'
GPGPU-Sim uArch: Shader 0 bind to kernel 1 '_Z14calculate_tempiPfS_S_iiiiffffff'
GPGPU-Sim uArch: Shader 4 bind to kernel 1 '_Z14calculate_tempiPfS_S_iiiiffffff'
GPGPU-Sim uArch: Shader 8 bind to kernel 1 '_Z14calculate_tempiPfS_S_iiiiffffff'
Destroy streams for kernel 1: size 0
kernel_name = _Z14calculate_tempiPfS_S_iiiiffffff 
kernel_launch_uid = 1 
gpu_sim_cycle = 2433497
gpu_sim_insn = 415466464
gpu_ipc =     170.7282
gpu_tot_sim_cycle = 2655647
gpu_tot_sim_insn = 415466464
gpu_tot_ipc =     156.4464
gpu_tot_issued_cta = 7396
max_total_param_size = 0
gpu_stall_dramfull = 65342
gpu_stall_icnt2sh    = 626106
partiton_reqs_in_parallel = 53471592
partiton_reqs_in_parallel_total    = 0
partiton_level_parallism =      21.9731
partiton_level_parallism_total  =      20.1351
partiton_reqs_in_parallel_util = 53471592
partiton_reqs_in_parallel_util_total    = 0
gpu_sim_cycle_parition_util = 2432873
gpu_tot_sim_cycle_parition_util    = 0
partiton_level_parallism_util =      21.9788
partiton_level_parallism_util_total  =      21.9788
partiton_replys_in_parallel = 456444
partiton_replys_in_parallel_total    = 0
L2_BW  =      17.7784 GB/Sec
L2_BW_total  =      16.2912 GB/Sec
gpu_total_sim_rate=152297

========= Core cache stats =========
L1I_cache:
	L1I_total_cache_accesses = 7740000
	L1I_total_cache_misses = 8688
	L1I_total_cache_miss_rate = 0.0011
	L1I_total_cache_pending_hits = 0
	L1I_total_cache_reservation_fails = 6846
L1D_cache:
	L1D_cache_core[0]: Access = 0, Miss = 0, Miss_rate = -nan, Pending_hits = 0, Reservation_fails = 0
	L1D_cache_core[1]: Access = 0, Miss = 0, Miss_rate = -nan, Pending_hits = 0, Reservation_fails = 0
	L1D_cache_core[2]: Access = 0, Miss = 0, Miss_rate = -nan, Pending_hits = 0, Reservation_fails = 0
	L1D_cache_core[3]: Access = 0, Miss = 0, Miss_rate = -nan, Pending_hits = 0, Reservation_fails = 0
	L1D_cache_core[4]: Access = 0, Miss = 0, Miss_rate = -nan, Pending_hits = 0, Reservation_fails = 0
	L1D_cache_core[5]: Access = 0, Miss = 0, Miss_rate = -nan, Pending_hits = 0, Reservation_fails = 0
	L1D_cache_core[6]: Access = 0, Miss = 0, Miss_rate = -nan, Pending_hits = 0, Reservation_fails = 0
	L1D_cache_core[7]: Access = 0, Miss = 0, Miss_rate = -nan, Pending_hits = 0, Reservation_fails = 0
	L1D_cache_core[8]: Access = 0, Miss = 0, Miss_rate = -nan, Pending_hits = 0, Reservation_fails = 0
	L1D_cache_core[9]: Access = 0, Miss = 0, Miss_rate = -nan, Pending_hits = 0, Reservation_fails = 0
	L1D_cache_core[10]: Access = 0, Miss = 0, Miss_rate = -nan, Pending_hits = 0, Reservation_fails = 0
	L1D_cache_core[11]: Access = 0, Miss = 0, Miss_rate = -nan, Pending_hits = 0, Reservation_fails = 0
	L1D_cache_core[12]: Access = 0, Miss = 0, Miss_rate = -nan, Pending_hits = 0, Reservation_fails = 0
	L1D_cache_core[13]: Access = 0, Miss = 0, Miss_rate = -nan, Pending_hits = 0, Reservation_fails = 0
	L1D_cache_core[14]: Access = 0, Miss = 0, Miss_rate = -nan, Pending_hits = 0, Reservation_fails = 0
	L1D_cache_core[15]: Access = 0, Miss = 0, Miss_rate = -nan, Pending_hits = 0, Reservation_fails = 0
	L1D_cache_core[16]: Access = 0, Miss = 0, Miss_rate = -nan, Pending_hits = 0, Reservation_fails = 0
	L1D_cache_core[17]: Access = 0, Miss = 0, Miss_rate = -nan, Pending_hits = 0, Reservation_fails = 0
	L1D_cache_core[18]: Access = 0, Miss = 0, Miss_rate = -nan, Pending_hits = 0, Reservation_fails = 0
	L1D_cache_core[19]: Access = 0, Miss = 0, Miss_rate = -nan, Pending_hits = 0, Reservation_fails = 0
	L1D_cache_core[20]: Access = 0, Miss = 0, Miss_rate = -nan, Pending_hits = 0, Reservation_fails = 0
	L1D_cache_core[21]: Access = 0, Miss = 0, Miss_rate = -nan, Pending_hits = 0, Reservation_fails = 0
	L1D_cache_core[22]: Access = 0, Miss = 0, Miss_rate = -nan, Pending_hits = 0, Reservation_fails = 0
	L1D_cache_core[23]: Access = 0, Miss = 0, Miss_rate = -nan, Pending_hits = 0, Reservation_fails = 0
	L1D_cache_core[24]: Access = 0, Miss = 0, Miss_rate = -nan, Pending_hits = 0, Reservation_fails = 0
	L1D_cache_core[25]: Access = 0, Miss = 0, Miss_rate = -nan, Pending_hits = 0, Reservation_fails = 0
	L1D_cache_core[26]: Access = 0, Miss = 0, Miss_rate = -nan, Pending_hits = 0, Reservation_fails = 0
	L1D_cache_core[27]: Access = 0, Miss = 0, Miss_rate = -nan, Pending_hits = 0, Reservation_fails = 0
	L1D_total_cache_accesses = 0
	L1D_total_cache_misses = 0
	L1D_total_cache_pending_hits = 0
	L1D_total_cache_reservation_fails = 0
	L1D_cache_data_port_util = 0.000
	L1D_cache_fill_port_util = 0.000
L1C_cache:
	L1C_total_cache_accesses = 769184
	L1C_total_cache_misses = 2195
	L1C_total_cache_miss_rate = 0.0029
	L1C_total_cache_pending_hits = 0
	L1C_total_cache_reservation_fails = 4886
L1T_cache:
	L1T_total_cache_accesses = 0
	L1T_total_cache_misses = 0
	L1T_total_cache_pending_hits = 0
	L1T_total_cache_reservation_fails = 0

Total_core_cache_stats:
	Total_core_cache_stats_breakdown[GLOBAL_ACC_R][HIT] = 0
	Total_core_cache_stats_breakdown[GLOBAL_ACC_R][HIT_RESERVED] = 0
	Total_core_cache_stats_breakdown[GLOBAL_ACC_R][MISS] = 0
	Total_core_cache_stats_breakdown[GLOBAL_ACC_R][RESERVATION_FAIL] = 0
	Total_core_cache_stats_breakdown[LOCAL_ACC_R][HIT] = 0
	Total_core_cache_stats_breakdown[LOCAL_ACC_R][HIT_RESERVED] = 0
	Total_core_cache_stats_breakdown[LOCAL_ACC_R][MISS] = 0
	Total_core_cache_stats_breakdown[LOCAL_ACC_R][RESERVATION_FAIL] = 0
	Total_core_cache_stats_breakdown[CONST_ACC_R][HIT] = 766989
	Total_core_cache_stats_breakdown[CONST_ACC_R][HIT_RESERVED] = 0
	Total_core_cache_stats_breakdown[CONST_ACC_R][MISS] = 2195
	Total_core_cache_stats_breakdown[CONST_ACC_R][RESERVATION_FAIL] = 4886
	Total_core_cache_stats_breakdown[TEXTURE_ACC_R][HIT] = 0
	Total_core_cache_stats_breakdown[TEXTURE_ACC_R][HIT_RESERVED] = 0
	Total_core_cache_stats_breakdown[TEXTURE_ACC_R][MISS] = 0
	Total_core_cache_stats_breakdown[TEXTURE_ACC_R][RESERVATION_FAIL] = 0
	Total_core_cache_stats_breakdown[GLOBAL_ACC_W][HIT] = 0
	Total_core_cache_stats_breakdown[GLOBAL_ACC_W][HIT_RESERVED] = 0
	Total_core_cache_stats_breakdown[GLOBAL_ACC_W][MISS] = 0
	Total_core_cache_stats_breakdown[GLOBAL_ACC_W][RESERVATION_FAIL] = 0
	Total_core_cache_stats_breakdown[LOCAL_ACC_W][HIT] = 0
	Total_core_cache_stats_breakdown[LOCAL_ACC_W][HIT_RESERVED] = 0
	Total_core_cache_stats_breakdown[LOCAL_ACC_W][MISS] = 0
	Total_core_cache_stats_breakdown[LOCAL_ACC_W][RESERVATION_FAIL] = 0
	Total_core_cache_stats_breakdown[L1_WRBK_ACC][HIT] = 0
	Total_core_cache_stats_breakdown[L1_WRBK_ACC][HIT_RESERVED] = 0
	Total_core_cache_stats_breakdown[L1_WRBK_ACC][MISS] = 0
	Total_core_cache_stats_breakdown[L1_WRBK_ACC][RESERVATION_FAIL] = 0
	Total_core_cache_stats_breakdown[L2_WRBK_ACC][HIT] = 0
	Total_core_cache_stats_breakdown[L2_WRBK_ACC][HIT_RESERVED] = 0
	Total_core_cache_stats_breakdown[L2_WRBK_ACC][MISS] = 0
	Total_core_cache_stats_breakdown[L2_WRBK_ACC][RESERVATION_FAIL] = 0
	Total_core_cache_stats_breakdown[INST_ACC_R][HIT] = 7731312
	Total_core_cache_stats_breakdown[INST_ACC_R][HIT_RESERVED] = 0
	Total_core_cache_stats_breakdown[INST_ACC_R][MISS] = 8688
	Total_core_cache_stats_breakdown[INST_ACC_R][RESERVATION_FAIL] = 6846
	Total_core_cache_stats_breakdown[L1_WR_ALLOC_R][HIT] = 0
	Total_core_cache_stats_breakdown[L1_WR_ALLOC_R][HIT_RESERVED] = 0
	Total_core_cache_stats_breakdown[L1_WR_ALLOC_R][MISS] = 0
	Total_core_cache_stats_breakdown[L1_WR_ALLOC_R][RESERVATION_FAIL] = 0
	Total_core_cache_stats_breakdown[L2_WR_ALLOC_R][HIT] = 0
	Total_core_cache_stats_breakdown[L2_WR_ALLOC_R][HIT_RESERVED] = 0
	Total_core_cache_stats_breakdown[L2_WR_ALLOC_R][MISS] = 0
	Total_core_cache_stats_breakdown[L2_WR_ALLOC_R][RESERVATION_FAIL] = 0
	Total_core_cache_stats_breakdown[CONST_ACC_R][TOTAL_ACCESS] = 769184
	Total_core_cache_stats_breakdown[INST_ACC_R][TOTAL_ACCESS] = 7740000
Shader 0 warp_id issue ditsribution:
warp_id:
0, 1, 2, 3, 4, 5, 6, 7, 8, 9, 10, 11, 12, 13, 14, 15, 16, 17, 18, 19, 20, 21, 22, 23, 24, 25, 26, 27, 28, 29, 30, 31, 32, 33, 34, 35, 36, 37, 38, 39, 40, 41, 42, 43, 44, 45, 46, 47, 48, 49, 50, 51, 52, 53, 54, 55, 
distro:
10724, 13520, 13539, 13495, 13540, 13493, 13534, 10837, 9972, 12574, 12598, 12567, 12598, 12553, 12592, 10077, 9485, 11966, 11994, 11812, 11844, 11809, 11838, 9502, 9302, 11641, 11658, 11487, 11513, 11484, 11514, 9247, 9299, 11629, 11658, 11475, 11510, 11471, 11508, 9232, 8553, 10684, 10715, 10687, 10711, 10681, 10704, 8572, 8798, 11004, 11020, 10993, 11015, 10983, 11018, 8823, 
gpgpu_n_tot_thrd_icount = 485326208
gpgpu_n_tot_w_icount = 15166444
gpgpu_n_stall_shd_mem = 383929
gpgpu_n_mem_read_local = 0
gpgpu_n_mem_write_local = 0
gpgpu_n_mem_read_global = 346456
gpgpu_n_mem_write_global = 109568
gpgpu_n_mem_texture = 0
gpgpu_n_mem_const = 56
gpgpu_n_load_insn  = 3720992
gpgpu_n_store_insn = 1048576
gpgpu_n_shmem_insn = 24940324
gpgpu_n_tex_insn = 0
gpgpu_n_const_mem_insn = 0
gpgpu_n_param_mem_insn = 24613888
gpgpu_n_shmem_bkconflict = 0
gpgpu_n_cache_bkconflict = 0
gpgpu_n_intrawarp_mshr_merge = 0
gpgpu_n_cmem_portconflict = 4886
gpgpu_stall_shd_mem[c_mem][bk_conf] = 4886
gpgpu_stall_shd_mem[c_mem][mshr_rc] = 0
gpgpu_stall_shd_mem[c_mem][icnt_rc] = 0
gpgpu_stall_shd_mem[c_mem][data_port_stall] = 0
gpgpu_stall_shd_mem[t_mem][mshr_rc] = 0
gpgpu_stall_shd_mem[t_mem][icnt_rc] = 0
gpgpu_stall_shd_mem[t_mem][data_port_stall] = 0
gpgpu_stall_shd_mem[s_mem][bk_conf] = 0
gpgpu_stall_shd_mem[gl_mem][bk_conf] = 0
gpgpu_stall_shd_mem[gl_mem][coal_stall] = 319712
gpgpu_stall_shd_mem[gl_mem][data_port_stall] = 0
gpgpu_stall_shd_mem[g_mem_ld][mshr_rc] = 0
gpgpu_stall_shd_mem[g_mem_ld][icnt_rc] = 59331
gpgpu_stall_shd_mem[g_mem_ld][wb_icnt_rc] = 0
gpgpu_stall_shd_mem[g_mem_ld][wb_rsrv_fail] = 0
gpgpu_stall_shd_mem[g_mem_st][mshr_rc] = 0
gpgpu_stall_shd_mem[g_mem_st][icnt_rc] = 0
gpgpu_stall_shd_mem[g_mem_st][wb_icnt_rc] = 0
gpgpu_stall_shd_mem[g_mem_st][wb_rsrv_fail] = 0
gpgpu_stall_shd_mem[l_mem_ld][mshr_rc] = 0
gpgpu_stall_shd_mem[l_mem_ld][icnt_rc] = 0
gpgpu_stall_shd_mem[l_mem_ld][wb_icnt_rc] = 0
gpgpu_stall_shd_mem[l_mem_ld][wb_rsrv_fail] = 0
gpgpu_stall_shd_mem[l_mem_st][mshr_rc] = 0
gpgpu_stall_shd_mem[l_mem_st][icnt_rc] = 0
gpgpu_stall_shd_mem[l_mem_ld][wb_icnt_rc] = 0
gpgpu_stall_shd_mem[l_mem_ld][wb_rsrv_fail] = 0
gpu_reg_bank_conflict_stalls = 0
Warp Occupancy Distribution:
Stall:542879	W0_Idle:71581723	W0_Scoreboard:51444128	W1:0	W2:0	W3:0	W4:0	W5:8500	W6:0	W7:0	W8:28160	W9:0	W10:25600	W11:0	W12:12958	W13:8500	W14:714000	W15:0	W16:0	W17:0	W18:0	W19:0	W20:0	W21:0	W22:0	W23:0	W24:3517792	W25:0	W26:25600	W27:0	W28:3287550	W29:0	W30:0	W31:0	W32:7537784
traffic_breakdown_coretomem[CONST_ACC_R] = 448 {8:56,}
traffic_breakdown_coretomem[GLOBAL_ACC_R] = 2771648 {8:346456,}
traffic_breakdown_coretomem[GLOBAL_ACC_W] = 7856128 {40:44032,72:44032,136:21504,}
traffic_breakdown_coretomem[INST_ACC_R] = 2912 {8:364,}
traffic_breakdown_memtocore[CONST_ACC_R] = 4032 {72:56,}
traffic_breakdown_memtocore[GLOBAL_ACC_R] = 28785856 {40:114576,72:114576,136:117304,}
traffic_breakdown_memtocore[GLOBAL_ACC_W] = 876544 {8:109568,}
traffic_breakdown_memtocore[INST_ACC_R] = 49504 {136:364,}
maxmrqlatency = 540 
maxdqlatency = 0 
maxmflatency = 243881 
averagemflatency = 5996 
max_icnt2mem_latency = 243557 
max_icnt2sh_latency = 2655646 
mrq_lat_table:107658 	6624 	6190 	14146 	19360 	15482 	9217 	8751 	8276 	9 	0 	0 	0 	0 	0 	0 	0 	0 	0 	0 	0 	0 	0 	0 	0 	0 	0 	0 	0 	0 	0 	0 	
dq_lat_table:0 	0 	0 	0 	0 	0 	0 	0 	0 	0 	0 	0 	0 	0 	0 	0 	0 	0 	0 	0 	0 	0 	0 	0 	0 	0 	0 	0 	0 	0 	0 	0 	
mf_lat_table:0 	0 	0 	0 	0 	0 	0 	251526 	142588 	2098 	405 	3698 	3966 	6388 	12729 	25303 	4994 	2385 	0 	0 	0 	0 	0 	0 	0 	0 	0 	0 	0 	0 	0 	0 	
icnt2mem_lat_table:0 	0 	223093 	40732 	4557 	1962 	116847 	8653 	731 	2 	863 	3278 	3938 	6504 	13063 	24879 	4957 	2385 	0 	0 	0 	0 	0 	0 	
icnt2sh_lat_table:0 	0 	99229 	159645 	81701 	5878 	59 	0 	0 	0 	0 	0 	0 	0 	0 	0 	0 	0 	12840 	14659 	60011 	22058 	0 	0 	
mf_lat_pw_table:0 	0 	0 	0 	0 	0 	0 	332 	105 	6 	12 	18 	31 	42 	79 	114 	42 	2 	0 	0 	0 	0 	0 	0 	0 	0 	0 	0 	0 	0 	0 	0 	
maximum concurrent accesses to same row:
dram[0]:        69        70        69        70        66        67        69        70        69        70        69        70        68        66        69        70 
dram[1]:        69        70        69        70        66        64        69        70        69        70        69        70        68        66        69        70 
dram[2]:        69        70        69        70        65        66        69        70        69        70        69        70        66        66        69        70 
dram[3]:        69        70        69        70        67        63        69        70        69        70        69        70        64        68        69        70 
dram[4]:        69        70        69        70        65        67        69        70        69        70        69        70        67        68        69        70 
dram[5]:        69        70        69        70        63        66        69        70        69        70        69        70        67        69        69        70 
dram[6]:        69        70        69        70        68        64        69        70        69        70        69        70        69        66        69        70 
dram[7]:        69        70        69        70        64        65        69        70        69        70        69        70        66        66        69        70 
dram[8]:        69        70        69        70        66        65        69        70        69        70        69        70        65        68        69        70 
dram[9]:        69        70        69        70        67        66        69        70        69        70        69        70        69        68        69        70 
dram[10]:        69        70        69        70        66        67        69        70        69        70        69        70        69        67        69        70 
maximum service time to same row:
dram[0]:    307635    307712    327454    327677    256635    256501    407344    407893    377430    377334    376792    274504    303340    303338    302059    302138 
dram[1]:    307773    308092    327642    327640    354540    354332    407955    407413    377548    377494    274506    274505    303326    303322    302068    301912 
dram[2]:    307736    308086    327464    327428    353671    353673    407247    407194    377556    377419    274506    274505    303334    303333    301497    301141 
dram[3]:    307779    307751    327426    327353    256386    256693    407360    407335    377310    377428    274511    274505    303209    303245    302051    302063 
dram[4]:    307991    308227    327291    327632    256542    256699    407182    406943    377542    377553    274507    274507    303277    303262    302065    302149 
dram[5]:    307635    307711    327539    327536    256636    256483    407168    408014    377452    377398    274507    274481    303340    303339    302071    302129 
dram[6]:    307805    308128    327458    327458    364957    364630    407944    407463    377430    377400    376319    274481    303329    303326    302065    301913 
dram[7]:    306254    308100    327421    327314    364756    364759    407285    407383    377446    377268    274481    274484    303333    303335    301547    301120 
dram[8]:    307767    307794    327291    327220    256532    256576    407322    407183    377329    377370    274482    274482    303208    303232    302041    302107 
dram[9]:    307973    308078    327293    327636    256425    256563    407306    406975    377284    377301    274482    274480    303157    303256    302064    302144 
dram[10]:    313005    312363    327533    327534    256823    256448    406986    407386    377262    377270    274506    274505    303283    303272    302080    302137 
average row accesses per activate:
dram[0]: 12.867470 12.252873 10.326923  9.981482 10.037037  9.845454 10.811320 10.348214 10.318182 10.472222 10.290909  9.195122 11.757895 11.561225 12.862069 11.469388 
dram[1]: 14.240000 13.234568 10.857142 11.526882 11.247422 10.451923 10.961905 10.369370 10.551402 11.410000 10.449541 10.180181 11.914893 12.296703 14.062500 12.450549 
dram[2]: 13.086420 12.611765 11.273685 11.082474 11.389474 10.509615 11.356436 12.408602 11.000000 11.330000 11.444445 11.058252 12.875000 12.511111 13.839506 12.772727 
dram[3]: 14.971831 15.970149 10.770000 11.597826 12.306818 10.900000 12.478261 11.979167 11.360000 12.304348 11.802083 11.639175 12.336957 13.174418 13.023255 13.373494 
dram[4]: 13.582278 12.383721 10.375000 10.730000 10.888889 11.578947 12.380435 11.714286 10.866667 10.876190 11.424242 11.128713 13.282353 12.666667 14.177216 11.852632 
dram[5]: 11.641304 11.844444 10.188680  9.727273  9.522124  9.387931 11.196078 11.019048 10.509259 10.300000 10.189189 10.462963 12.606742 11.320000 10.657143 10.922330 
dram[6]: 13.717949 11.576087 11.922222 11.673913 11.183674  9.310345 10.792453 10.623854 10.462963 11.227723 11.701031 10.846154 12.118279 12.282609 13.397591 12.172043 
dram[7]: 12.529411 13.500000 12.465117 12.344828 10.742575 10.666667 12.052631 12.725275 10.980392 11.864583 12.347826 11.591837 11.800000 12.118279 12.806818 12.544444 
dram[8]: 13.766233 12.927711 11.125000 11.922222 11.752688 10.754902 12.354838 12.921349 11.520409 11.310000 12.021276 12.336957 11.812500 12.818182 13.638555 12.606742 
dram[9]: 13.870130 13.831169 10.336538 10.375000 10.442307 10.252337 12.191489 11.937500 11.693877 12.106383 12.118279 11.639175 11.802083 12.380435 13.152941 11.863158 
dram[10]: 13.375000 12.902439 10.355769 10.179245 10.295238 10.280374 12.159575 11.693877 10.800000 10.412844 11.127451 10.884615 12.500000 11.770833 11.242424 11.230000 
average row locality = 195713/16904 = 11.577910
number of total memory accesses made:
dram[0]:         0         0         0         0         0         0         0         0         0         0         0         0         0         0         0         0 
dram[1]:         0         0         0         0         0         0         0         0         0         0         0         0         0         0         0         0 
dram[2]:         0         0         0         0         0         0         0         0         0         0         0         0         0         0         0         0 
dram[3]:         0         0         0         0         0         0         0         0         0         0         0         0         0         0         0         0 
dram[4]:         0         0         0         0         0         0         0         0         0         0         0         0         0         0         0         0 
dram[5]:         0         0         0         0         0         0         0         0         0         0         0         0         0         0         0         0 
dram[6]:         0         0         0         0         0         0         0         0         0         0         0         0         0         0         0         0 
dram[7]:         0         0         0         0         0         0         0         0         0         0         0         0         0         0         0         0 
dram[8]:         0         0         0         0         0         0         0         0         0         0         0         0         0         0         0         0 
dram[9]:         0         0         0         0         0         0         0         0         0         0         0         0         0         0         0         0 
dram[10]:         0         0         0         0         0         0         0         0         0         0         0         0         0         0         0         0 
total accesses: 0
min_bank_accesses = 0!
min_chip_accesses = 0!
number of total read accesses:
dram[0]:       561       560       560       560       560       560       560       560       560       560       548       548       560       560       560       560 
dram[1]:       560       560       560       560       560       560       560       560       560       560       549       549       560       560       560       560 
dram[2]:       560       560       560       560       560       560       560       560       560       560       549       549       560       560       560       560 
dram[3]:       560       560       560       560       560       560       560       560       560       560       549       549       560       560       560       560 
dram[4]:       560       560       560       560       560       560       560       560       560       560       549       549       560       560       561       561 
dram[5]:       560       560       560       560       560       560       560       560       560       560       548       548       560       560       561       561 
dram[6]:       560       560       560       560       560       560       560       560       560       560       548       548       560       560       561       561 
dram[7]:       560       560       560       560       560       560       560       560       560       560       548       548       560       560       561       561 
dram[8]:       560       560       560       560       560       560       560       560       560       560       548       548       560       560       561       561 
dram[9]:       560       560       560       560       560       560       560       560       560       560       548       548       560       560       561       561 
dram[10]:       560       560       560       560       560       560       560       560       560       560       548       548       560       560       561       560 
total reads: 98318
bank skew: 561/548 = 1.02
chip skew: 8940/8937 = 1.00
number of total write accesses:
dram[0]:       507       506       514       518       524       523       586       599       575       571       584       583       557       573       559       564 
dram[1]:       508       512       504       512       531       527       591       591       569       581       590       581       560       559       565       573 
dram[2]:       500       512       511       515       522       533       587       594       562       573       584       590       573       566       561       564 
dram[3]:       503       510       517       507       523       530       588       590       576       572       584       580       575       573       560       550 
dram[4]:       513       505       519       513       518       540       579       588       581       582       582       575       569       580       559       565 
dram[5]:       511       506       520       510       516       529       582       597       575       573       583       582       562       572       558       564 
dram[6]:       510       505       513       514       536       520       584       598       570       574       587       580       567       570       551       571 
dram[7]:       505       520       512       514       525       528       585       598       560       579       588       588       561       567       566       568 
dram[8]:       500       513       508       513       533       537       589       590       569       571       582       587       574       568       571       561 
dram[9]:       508       505       515       519       526       537       586       586       586       578       579       581       573       579       557       566 
dram[10]:       510       498       517       519       521       540       583       586       574       575       587       584       565       570       552       563 
total reads: 97395
bank skew: 599/498 = 1.20
chip skew: 8881/8838 = 1.00
average mf latency per bank:
dram[0]:      12941     13111     11808     12044     15334     14954     14139     14258      9886      9777     11510     11340     19612     19425     15103     14918
dram[1]:      13167     13154     12151     12204     15282     15360     14078     14287     10012      9934     11484     11507     19728     20037     15163     14781
dram[2]:      13104     13086     12262     12347     15244     15618     14081     14013      9960      9596     11651     11401     19796     20259     15159     14712
dram[3]:      13326     13188     12427     12553     15720     15162     14138     14170      9870      9618     11684     11745     19814     20079     15070     14817
dram[4]:      13456     13239     12124     12240     16216     16036     13893     13869      9646      9544     11225     10788     20163     20078     14575     14242
dram[5]:      14065     14394     12061     11814     16140     16107     13740     13730      9982      9961     10407     10176     20231     20229     13969     13711
dram[6]:      13972     13858     12411     12631     16192     15992     13953     13931     10403     10270     11655     12146     20195     20463     14408     14091
dram[7]:      13800     13723     12514     12449     16260     16656     14252     14398     10125      9717     12231     12246     20755     21010     14472     14195
dram[8]:      13717     13593     12825     12601     16110     16009     14259     14164      9763      9479     12531     12172     20533     20746     14616     14521
dram[9]:      13455     13032     12051     12018     15935     15239     13604     13561      9691      9597     12657     12585     20389     20457     15287     14993
dram[10]:      12655     12730     11720     11251     15471     15685     13618     13681      9762      9691     12626     12535     20132     19741     15003     14444
maximum mf latency per bank:
dram[0]:     177845    177708     68827     68831    124157    124372    123758    123719    123046    122891    178732    178737    178430    178446    243814    243834
dram[1]:     177759    177673     71716     71754    124378    124504    123748    123755    122986    123019    178731    178743    178558    178701    243800    243829
dram[2]:     177851    177679     79240     79243    124474    124367    123755    123764    123015    122995    178733    178740    178602    178760    243808    243831
dram[3]:     177674    177474     79236     79245    124353    124372    123760    123737    123069    123072    178741    178743    178553    178677    243807    243881
dram[4]:     177587    177594     79240     79245    124313    124414    123744    123755    123051    123004    178738    178742    178457    178511    243809    178205
dram[5]:     177791    177692     79247     79243    124214    124473    123562    123729    123015    122923    178735    178732    178441    178462    178234    178337
dram[6]:     177813    177749     79234     76633    124374    124506    123731    123756    123043    123003    178744    178760    178551    178629    178410    178424
dram[7]:     177860    177691     76635     76641    124405    124448    123783    124042    122982    123015    178738    178741    178553    178648    178330    178280
dram[8]:     177653    177476     76632     74304    124533    124349    123813    123828    123011    123071    178733    178771    178599    178679    178371    178326
dram[9]:     177570    177603     74275     74202    124404    124306    123724    123734    123050    122978    178744    178746    178418    178534    243764    243774
dram[10]:     123660    123637     74195     68826    124194    124305    123741    123799    123024    122964    178747    178750    178461    178485    243797    243810
Memory Partition 0: 
Cache L2_bank_000:
MSHR contents

Cache L2_bank_001:
MSHR contents

In Dram Latency Queue (total = 0): 
DRAM[0]: 16 bks, busW=4 BL=8 CL=12, tRRD=2 tCCD=6, tRCD=12 tRAS=28 tRP=12 tRC=40
n_cmd=4518646 n_nop=4459204 n_act=1648 n_pre=1632 n_req=17780 n_rd=35748 n_write=20414 bw_util=0.02486
n_activity=195161 dram_eff=0.5755
bk0: 2244a 4499168i bk1: 2240a 4497387i bk2: 2240a 4497908i bk3: 2240a 4496455i bk4: 2240a 4498101i bk5: 2240a 4495577i bk6: 2240a 4495981i bk7: 2240a 4494964i bk8: 2240a 4497083i bk9: 2240a 4495662i bk10: 2192a 4496772i bk11: 2192a 4495376i bk12: 2240a 4498053i bk13: 2240a 4496141i bk14: 2240a 4497175i bk15: 2240a 4495620i 
dram_util_bins: 0 0 0 0 0 0 0 0 0 0
dram_eff_bins: 0 0 0 0 0 0 0 0 0 0
mrqq: max=64 avg=0.249592
Memory Partition 1: 
Cache L2_bank_002:
MSHR contents

Cache L2_bank_003:
MSHR contents

In Dram Latency Queue (total = 0): 
DRAM[1]: 16 bks, busW=4 BL=8 CL=12, tRRD=2 tCCD=6, tRCD=12 tRAS=28 tRP=12 tRC=40
n_cmd=4518646 n_nop=4459425 n_act=1547 n_pre=1531 n_req=17792 n_rd=35752 n_write=20391 bw_util=0.02485
n_activity=194356 dram_eff=0.5777
bk0: 2240a 4499337i bk1: 2240a 4497409i bk2: 2240a 4498538i bk3: 2240a 4497239i bk4: 2240a 4497782i bk5: 2240a 4496765i bk6: 2240a 4496662i bk7: 2240a 4495518i bk8: 2240a 4496831i bk9: 2240a 4496083i bk10: 2196a 4497068i bk11: 2196a 4495618i bk12: 2240a 4497843i bk13: 2240a 4496300i bk14: 2240a 4497228i bk15: 2240a 4495268i 
dram_util_bins: 0 0 0 0 0 0 0 0 0 0
dram_eff_bins: 0 0 0 0 0 0 0 0 0 0
mrqq: max=64 avg=0.24325
Memory Partition 2: 
Cache L2_bank_004:
MSHR contents

Cache L2_bank_005:
MSHR contents

In Dram Latency Queue (total = 0): 
DRAM[2]: 16 bks, busW=4 BL=8 CL=12, tRRD=2 tCCD=6, tRCD=12 tRAS=28 tRP=12 tRC=40
n_cmd=4518646 n_nop=4459461 n_act=1502 n_pre=1486 n_req=17785 n_rd=35752 n_write=20445 bw_util=0.02487
n_activity=194024 dram_eff=0.5793
bk0: 2240a 4499416i bk1: 2240a 4497329i bk2: 2240a 4498771i bk3: 2240a 4497196i bk4: 2240a 4497841i bk5: 2240a 4497187i bk6: 2240a 4497071i bk7: 2240a 4496495i bk8: 2240a 4497611i bk9: 2240a 4496337i bk10: 2196a 4497438i bk11: 2196a 4496088i bk12: 2240a 4497407i bk13: 2240a 4495255i bk14: 2240a 4496857i bk15: 2240a 4495893i 
dram_util_bins: 0 0 0 0 0 0 0 0 0 0
dram_eff_bins: 0 0 0 0 0 0 0 0 0 0
mrqq: max=64 avg=0.240927
Memory Partition 3: 
Cache L2_bank_006:
MSHR contents

Cache L2_bank_007:
MSHR contents

In Dram Latency Queue (total = 0): 
DRAM[3]: 16 bks, busW=4 BL=8 CL=12, tRRD=2 tCCD=6, tRCD=12 tRAS=28 tRP=12 tRC=40
n_cmd=4518646 n_nop=4459617 n_act=1438 n_pre=1422 n_req=17776 n_rd=35752 n_write=20417 bw_util=0.02486
n_activity=195066 dram_eff=0.5759
bk0: 2240a 4499604i bk1: 2240a 4498447i bk2: 2240a 4498649i bk3: 2240a 4497751i bk4: 2240a 4498666i bk5: 2240a 4497668i bk6: 2240a 4496842i bk7: 2240a 4496027i bk8: 2240a 4497281i bk9: 2240a 4496146i bk10: 2196a 4497549i bk11: 2196a 4496402i bk12: 2240a 4497194i bk13: 2240a 4495891i bk14: 2240a 4497654i bk15: 2240a 4495682i 
dram_util_bins: 0 0 0 0 0 0 0 0 0 0
dram_eff_bins: 0 0 0 0 0 0 0 0 0 0
mrqq: max=64 avg=0.242889
Memory Partition 4: 
Cache L2_bank_008:
MSHR contents

Cache L2_bank_009:
MSHR contents

In Dram Latency Queue (total = 0): 
DRAM[4]: 16 bks, busW=4 BL=8 CL=12, tRRD=2 tCCD=6, tRCD=12 tRAS=28 tRP=12 tRC=40
n_cmd=4518646 n_nop=4459409 n_act=1512 n_pre=1496 n_req=17808 n_rd=35760 n_write=20469 bw_util=0.02489
n_activity=194588 dram_eff=0.5779
bk0: 2240a 4498629i bk1: 2240a 4497142i bk2: 2240a 4498492i bk3: 2240a 4497353i bk4: 2240a 4498863i bk5: 2240a 4496659i bk6: 2240a 4497340i bk7: 2240a 4495326i bk8: 2240a 4497232i bk9: 2240a 4495973i bk10: 2196a 4496807i bk11: 2196a 4495543i bk12: 2240a 4498114i bk13: 2240a 4496371i bk14: 2244a 4497780i bk15: 2244a 4495518i 
dram_util_bins: 0 0 0 0 0 0 0 0 0 0
dram_eff_bins: 0 0 0 0 0 0 0 0 0 0
mrqq: max=64 avg=0.2463
Memory Partition 5: 
Cache L2_bank_010:
MSHR contents

Cache L2_bank_011:
MSHR contents

In Dram Latency Queue (total = 0): 
DRAM[5]: 16 bks, busW=4 BL=8 CL=12, tRRD=2 tCCD=6, tRCD=12 tRAS=28 tRP=12 tRC=40
n_cmd=4518646 n_nop=4459131 n_act=1668 n_pre=1652 n_req=17778 n_rd=35752 n_write=20443 bw_util=0.02487
n_activity=195858 dram_eff=0.5738
bk0: 2240a 4498272i bk1: 2240a 4497714i bk2: 2240a 4498888i bk3: 2240a 4497596i bk4: 2240a 4497747i bk5: 2240a 4495871i bk6: 2240a 4496525i bk7: 2240a 4495252i bk8: 2240a 4496948i bk9: 2240a 4495285i bk10: 2192a 4497240i bk11: 2192a 4496230i bk12: 2240a 4497873i bk13: 2240a 4495269i bk14: 2244a 4497388i bk15: 2244a 4495872i 
dram_util_bins: 0 0 0 0 0 0 0 0 0 0
dram_eff_bins: 0 0 0 0 0 0 0 0 0 0
mrqq: max=64 avg=0.242091
Memory Partition 6: 
Cache L2_bank_012:
MSHR contents

Cache L2_bank_013:
MSHR contents

In Dram Latency Queue (total = 0): 
DRAM[6]: 16 bks, busW=4 BL=8 CL=12, tRRD=2 tCCD=6, tRCD=12 tRAS=28 tRP=12 tRC=40
n_cmd=4518646 n_nop=4459441 n_act=1552 n_pre=1536 n_req=17788 n_rd=35752 n_write=20365 bw_util=0.02484
n_activity=193554 dram_eff=0.5799
bk0: 2240a 4499030i bk1: 2240a 4498103i bk2: 2240a 4499214i bk3: 2240a 4497963i bk4: 2240a 4497990i bk5: 2240a 4495755i bk6: 2240a 4496382i bk7: 2240a 4495184i bk8: 2240a 4497293i bk9: 2240a 4495553i bk10: 2192a 4497350i bk11: 2192a 4496348i bk12: 2240a 4497153i bk13: 2240a 4496043i bk14: 2244a 4497345i bk15: 2244a 4495856i 
dram_util_bins: 0 0 0 0 0 0 0 0 0 0
dram_eff_bins: 0 0 0 0 0 0 0 0 0 0
mrqq: max=64 avg=0.24298
Memory Partition 7: 
Cache L2_bank_014:
MSHR contents

Cache L2_bank_015:
MSHR contents

In Dram Latency Queue (total = 0): 
DRAM[7]: 16 bks, busW=4 BL=8 CL=12, tRRD=2 tCCD=6, tRCD=12 tRAS=28 tRP=12 tRC=40
n_cmd=4518646 n_nop=4459556 n_act=1481 n_pre=1465 n_req=17802 n_rd=35752 n_write=20392 bw_util=0.02485
n_activity=194238 dram_eff=0.5781
bk0: 2240a 4499450i bk1: 2240a 4497886i bk2: 2240a 4499009i bk3: 2240a 4497815i bk4: 2240a 4497747i bk5: 2240a 4496863i bk6: 2240a 4496962i bk7: 2240a 4496255i bk8: 2240a 4496884i bk9: 2240a 4495860i bk10: 2192a 4497342i bk11: 2192a 4495952i bk12: 2240a 4497398i bk13: 2240a 4495600i bk14: 2244a 4497258i bk15: 2244a 4495676i 
dram_util_bins: 0 0 0 0 0 0 0 0 0 0
dram_eff_bins: 0 0 0 0 0 0 0 0 0 0
mrqq: max=64 avg=0.244883
Memory Partition 8: 
Cache L2_bank_016:
MSHR contents

Cache L2_bank_017:
MSHR contents

In Dram Latency Queue (total = 0): 
DRAM[8]: 16 bks, busW=4 BL=8 CL=12, tRRD=2 tCCD=6, tRCD=12 tRAS=28 tRP=12 tRC=40
n_cmd=4518646 n_nop=4459502 n_act=1463 n_pre=1447 n_req=17804 n_rd=35752 n_write=20482 bw_util=0.02489
n_activity=194418 dram_eff=0.5785
bk0: 2240a 4499733i bk1: 2240a 4497711i bk2: 2240a 4498741i bk3: 2240a 4497923i bk4: 2240a 4498368i bk5: 2240a 4496603i bk6: 2240a 4496765i bk7: 2240a 4496446i bk8: 2240a 4497051i bk9: 2240a 4496049i bk10: 2192a 4497490i bk11: 2192a 4496185i bk12: 2240a 4497260i bk13: 2240a 4496817i bk14: 2244a 4497038i bk15: 2244a 4495746i 
dram_util_bins: 0 0 0 0 0 0 0 0 0 0
dram_eff_bins: 0 0 0 0 0 0 0 0 0 0
mrqq: max=64 avg=0.24243
Memory Partition 9: 
Cache L2_bank_018:
MSHR contents

Cache L2_bank_019:
MSHR contents

In Dram Latency Queue (total = 0): 
DRAM[9]: 16 bks, busW=4 BL=8 CL=12, tRRD=2 tCCD=6, tRCD=12 tRAS=28 tRP=12 tRC=40
n_cmd=4518646 n_nop=4459407 n_act=1513 n_pre=1497 n_req=17819 n_rd=35752 n_write=20477 bw_util=0.02489
n_activity=195693 dram_eff=0.5747
bk0: 2240a 4499656i bk1: 2240a 4498739i bk2: 2240a 4498427i bk3: 2240a 4497635i bk4: 2240a 4498001i bk5: 2240a 4496148i bk6: 2240a 4496577i bk7: 2240a 4496269i bk8: 2240a 4497500i bk9: 2240a 4496628i bk10: 2192a 4498035i bk11: 2192a 4495617i bk12: 2240a 4497466i bk13: 2240a 4496711i bk14: 2244a 4497587i bk15: 2244a 4495934i 
dram_util_bins: 0 0 0 0 0 0 0 0 0 0
dram_eff_bins: 0 0 0 0 0 0 0 0 0 0
mrqq: max=64 avg=0.245299
Memory Partition 10: 
Cache L2_bank_020:
MSHR contents

Cache L2_bank_021:
MSHR contents

In Dram Latency Queue (total = 0): 
DRAM[10]: 16 bks, busW=4 BL=8 CL=12, tRRD=2 tCCD=6, tRCD=12 tRAS=28 tRP=12 tRC=40
n_cmd=4518646 n_nop=4459302 n_act=1581 n_pre=1565 n_req=17781 n_rd=35748 n_write=20450 bw_util=0.02487
n_activity=194920 dram_eff=0.5766
bk0: 2240a 4498783i bk1: 2240a 4497443i bk2: 2240a 4498358i bk3: 2240a 4496396i bk4: 2240a 4497790i bk5: 2240a 4495317i bk6: 2240a 4496897i bk7: 2240a 4495558i bk8: 2240a 4497420i bk9: 2240a 4495784i bk10: 2192a 4496368i bk11: 2192a 4496079i bk12: 2240a 4497882i bk13: 2240a 4495775i bk14: 2244a 4496679i bk15: 2240a 4495391i 
dram_util_bins: 0 0 0 0 0 0 0 0 0 0
dram_eff_bins: 0 0 0 0 0 0 0 0 0 0
mrqq: max=64 avg=0.247032

========= L2 cache stats =========
L2_cache_bank[0]: Access = 20620, Miss = 4469, Miss_rate = 0.217, Pending_hits = 8078, Reservation_fails = 4
L2_cache_bank[1]: Access = 20905, Miss = 4468, Miss_rate = 0.214, Pending_hits = 8259, Reservation_fails = 8
L2_cache_bank[2]: Access = 20570, Miss = 4469, Miss_rate = 0.217, Pending_hits = 8098, Reservation_fails = 2
L2_cache_bank[3]: Access = 20910, Miss = 4469, Miss_rate = 0.214, Pending_hits = 8259, Reservation_fails = 3
L2_cache_bank[4]: Access = 20562, Miss = 4469, Miss_rate = 0.217, Pending_hits = 7994, Reservation_fails = 7
L2_cache_bank[5]: Access = 20901, Miss = 4469, Miss_rate = 0.214, Pending_hits = 8245, Reservation_fails = 6
L2_cache_bank[6]: Access = 20556, Miss = 4469, Miss_rate = 0.217, Pending_hits = 8117, Reservation_fails = 7
L2_cache_bank[7]: Access = 20897, Miss = 4469, Miss_rate = 0.214, Pending_hits = 8213, Reservation_fails = 6
L2_cache_bank[8]: Access = 20582, Miss = 4470, Miss_rate = 0.217, Pending_hits = 8093, Reservation_fails = 7
L2_cache_bank[9]: Access = 20926, Miss = 4470, Miss_rate = 0.214, Pending_hits = 8255, Reservation_fails = 2
[...]
F:  7487776----T:  7490381 	 St: c06f4000 Sz: 4096 	 Sm: 0 	 T: write_back(1.758947)
F:  7490381----T:  7492986 	 St: c0b49000 Sz: 4096 	 Sm: 0 	 T: memcpy_h2d(1.758947)
F:  7490381----T:  7492986 	 St: c0047000 Sz: 4096 	 Sm: 0 	 T: write_back(1.758947)
F:  7492986----T:  7495591 	 St: c0750000 Sz: 4096 	 Sm: 0 	 T: memcpy_h2d(1.758947)
F:  7492986----T:  7495591 	 St: c0a41000 Sz: 4096 	 Sm: 0 	 T: write_back(1.758947)
F:  7495591----T:  7498196 	 St: c0b54000 Sz: 4096 	 Sm: 0 	 T: memcpy_h2d(1.758947)
F:  7495591----T:  7498196 	 St: c0286000 Sz: 4096 	 Sm: 0 	 T: write_back(1.758947)
F:  7498196----T:  7500801 	 St: c0b4b000 Sz: 4096 	 Sm: 0 	 T: memcpy_h2d(1.758947)
F:  7498196----T:  7500801 	 St: c0377000 Sz: 4096 	 Sm: 0 	 T: write_back(1.758947)
F:  7500802----T:  7503407 	 St: c0b52000 Sz: 4096 	 Sm: 0 	 T: memcpy_h2d(1.758947)
F:  7500802----T:  7503407 	 St: c0471000 Sz: 4096 	 Sm: 0 	 T: write_back(1.758947)
F:  7503761----T:  7506366 	 St: c075a000 Sz: 4096 	 Sm: 0 	 T: memcpy_h2d(1.758947)
F:  7503761----T:  7506366 	 St: c0375000 Sz: 4096 	 Sm: 0 	 T: write_back(1.758947)
F:  7506366----T:  7508971 	 St: c0760000 Sz: 4096 	 Sm: 0 	 T: memcpy_h2d(1.758947)
F:  7506366----T:  7508971 	 St: c024f000 Sz: 4096 	 Sm: 0 	 T: write_back(1.758947)
F:  7508971----T:  7511576 	 St: c0761000 Sz: 4096 	 Sm: 0 	 T: memcpy_h2d(1.758947)
F:  7508971----T:  7511576 	 St: c0260000 Sz: 4096 	 Sm: 0 	 T: write_back(1.758947)
F:  7511576----T:  7514181 	 St: c0767000 Sz: 4096 	 Sm: 0 	 T: memcpy_h2d(1.758947)
F:  7511576----T:  7514181 	 St: c0190000 Sz: 4096 	 Sm: 0 	 T: write_back(1.758947)
F:  7514181----T:  7516786 	 St: c0765000 Sz: 4096 	 Sm: 0 	 T: memcpy_h2d(1.758947)
F:  7514181----T:  7516786 	 St: c042a000 Sz: 4096 	 Sm: 0 	 T: write_back(1.758947)
F:  7516786----T:  7519391 	 St: c0b6d000 Sz: 4096 	 Sm: 0 	 T: memcpy_h2d(1.758947)
F:  7516786----T:  7519391 	 St: c061b000 Sz: 4096 	 Sm: 0 	 T: write_back(1.758947)
F:  7519391----T:  7521996 	 St: c0351000 Sz: 4096 	 Sm: 0 	 T: memcpy_h2d(1.758947)
F:  7519391----T:  7521996 	 St: c06d0000 Sz: 4096 	 Sm: 0 	 T: write_back(1.758947)
F:  7521996----T:  7524601 	 St: c0354000 Sz: 4096 	 Sm: 0 	 T: memcpy_h2d(1.758947)
F:  7521996----T:  7524601 	 St: c0785000 Sz: 4096 	 Sm: 0 	 T: write_back(1.758947)
F:  7524601----T:  7527206 	 St: c0368000 Sz: 4096 	 Sm: 0 	 T: memcpy_h2d(1.758947)
F:  7524601----T:  7527206 	 St: c0a27000 Sz: 4096 	 Sm: 0 	 T: write_back(1.758947)
F:  7527206----T:  7529811 	 St: c036b000 Sz: 4096 	 Sm: 0 	 T: memcpy_h2d(1.758947)
F:  7527206----T:  7529811 	 St: c0616000 Sz: 4096 	 Sm: 0 	 T: write_back(1.758947)
F:  7529812----T:  7532417 	 St: c038c000 Sz: 4096 	 Sm: 0 	 T: memcpy_h2d(1.758947)
F:  7529812----T:  7532417 	 St: c0a0d000 Sz: 4096 	 Sm: 0 	 T: write_back(1.758947)
F:  7533414----T:  7536019 	 St: c0776000 Sz: 4096 	 Sm: 0 	 T: memcpy_h2d(1.758947)
F:  7533414----T:  7536019 	 St: c05f3000 Sz: 4096 	 Sm: 0 	 T: write_back(1.758947)
F:  7536019----T:  7538624 	 St: c0777000 Sz: 4096 	 Sm: 0 	 T: memcpy_h2d(1.758947)
F:  7536019----T:  7538624 	 St: c074c000 Sz: 4096 	 Sm: 0 	 T: write_back(1.758947)
F:  7538624----T:  7541229 	 St: c0779000 Sz: 4096 	 Sm: 0 	 T: memcpy_h2d(1.758947)
F:  7538624----T:  7541229 	 St: c017f000 Sz: 4096 	 Sm: 0 	 T: write_back(1.758947)
F:  7541229----T:  7543834 	 St: c0782000 Sz: 4096 	 Sm: 0 	 T: memcpy_h2d(1.758947)
F:  7541229----T:  7543834 	 St: c064b000 Sz: 4096 	 Sm: 0 	 T: write_back(1.758947)
F:  7543834----T:  7546439 	 St: c0783000 Sz: 4096 	 Sm: 0 	 T: memcpy_h2d(1.758947)
F:  7543834----T:  7546439 	 St: c0157000 Sz: 4096 	 Sm: 0 	 T: write_back(1.758947)
F:  7546439----T:  7549044 	 St: c0785000 Sz: 4096 	 Sm: 0 	 T: memcpy_h2d(1.758947)
F:  7546439----T:  7549044 	 St: c0743000 Sz: 4096 	 Sm: 0 	 T: write_back(1.758947)
F:  7549044----T:  7551649 	 St: c0b7b000 Sz: 4096 	 Sm: 0 	 T: memcpy_h2d(1.758947)
F:  7549044----T:  7551649 	 St: c0ac7000 Sz: 4096 	 Sm: 0 	 T: write_back(1.758947)
F:  7551649----T:  7554254 	 St: c0b7f000 Sz: 4096 	 Sm: 0 	 T: memcpy_h2d(1.758947)
F:  7551649----T:  7554254 	 St: c01f2000 Sz: 4096 	 Sm: 0 	 T: write_back(1.758947)
F:  7554254----T:  7556859 	 St: c0b81000 Sz: 4096 	 Sm: 0 	 T: memcpy_h2d(1.758947)
F:  7554254----T:  7556859 	 St: c049d000 Sz: 4096 	 Sm: 0 	 T: write_back(1.758947)
F:  7556859----T:  7559464 	 St: c0b76000 Sz: 4096 	 Sm: 0 	 T: memcpy_h2d(1.758947)
F:  7556859----T:  7559464 	 St: c0073000 Sz: 4096 	 Sm: 0 	 T: write_back(1.758947)
F:  7559464----T:  7562069 	 St: c0ba5000 Sz: 4096 	 Sm: 0 	 T: memcpy_h2d(1.758947)
F:  7559464----T:  7562069 	 St: c09ee000 Sz: 4096 	 Sm: 0 	 T: write_back(1.758947)
F:  7562070----T:  7564675 	 St: c0b79000 Sz: 4096 	 Sm: 0 	 T: memcpy_h2d(1.758947)
F:  7562070----T:  7564675 	 St: c0b42000 Sz: 4096 	 Sm: 0 	 T: write_back(1.758947)
F:  7565911----T:  7568516 	 St: c0b87000 Sz: 4096 	 Sm: 0 	 T: memcpy_h2d(1.758947)
F:  7565911----T:  7568516 	 St: c0b44000 Sz: 4096 	 Sm: 0 	 T: write_back(1.758947)
F:  7568516----T:  7571121 	 St: c078f000 Sz: 4096 	 Sm: 0 	 T: memcpy_h2d(1.758947)
F:  7568516----T:  7571121 	 St: c0997000 Sz: 4096 	 Sm: 0 	 T: write_back(1.758947)
F:  7571121----T:  7573726 	 St: c0788000 Sz: 4096 	 Sm: 0 	 T: memcpy_h2d(1.758947)
F:  7571121----T:  7573726 	 St: c06e7000 Sz: 4096 	 Sm: 0 	 T: write_back(1.758947)
F:  7573726----T:  7576331 	 St: c0373000 Sz: 4096 	 Sm: 0 	 T: memcpy_h2d(1.758947)
F:  7573726----T:  7576331 	 St: c0aea000 Sz: 4096 	 Sm: 0 	 T: write_back(1.758947)
F:  7576331----T:  7578936 	 St: c0377000 Sz: 4096 	 Sm: 0 	 T: memcpy_h2d(1.758947)
F:  7576331----T:  7578936 	 St: c0aa7000 Sz: 4096 	 Sm: 0 	 T: write_back(1.758947)
F:  7578936----T:  7581541 	 St: c0374000 Sz: 4096 	 Sm: 0 	 T: memcpy_h2d(1.758947)
F:  7578936----T:  7581541 	 St: c06cf000 Sz: 4096 	 Sm: 0 	 T: write_back(1.758947)
F:  7581541----T:  7584146 	 St: c0375000 Sz: 4096 	 Sm: 0 	 T: memcpy_h2d(1.758947)
F:  7581541----T:  7584146 	 St: c02f6000 Sz: 4096 	 Sm: 0 	 T: write_back(1.758947)
F:  7584146----T:  7586751 	 St: c037e000 Sz: 4096 	 Sm: 0 	 T: memcpy_h2d(1.758947)
F:  7584146----T:  7586751 	 St: c08e0000 Sz: 4096 	 Sm: 0 	 T: write_back(1.758947)
F:  7586751----T:  7589356 	 St: c0384000 Sz: 4096 	 Sm: 0 	 T: memcpy_h2d(1.758947)
F:  7586751----T:  7589356 	 St: c08f2000 Sz: 4096 	 Sm: 0 	 T: write_back(1.758947)
F:  7589357----T:  7591962 	 St: c038f000 Sz: 4096 	 Sm: 0 	 T: memcpy_h2d(1.758947)
F:  7589357----T:  7591962 	 St: c089c000 Sz: 4096 	 Sm: 0 	 T: write_back(1.758947)
F:  7592914----T:  7595519 	 St: c0792000 Sz: 4096 	 Sm: 0 	 T: memcpy_h2d(1.758947)
F:  7592914----T:  7595519 	 St: c0afc000 Sz: 4096 	 Sm: 0 	 T: write_back(1.758947)
F:  7595519----T:  7598124 	 St: c0b9b000 Sz: 4096 	 Sm: 0 	 T: memcpy_h2d(1.758947)
F:  7595519----T:  7598124 	 St: c06a0000 Sz: 4096 	 Sm: 0 	 T: write_back(1.758947)
F:  7598124----T:  7600729 	 St: c079f000 Sz: 4096 	 Sm: 0 	 T: memcpy_h2d(1.758947)
F:  7598124----T:  7600729 	 St: c02bc000 Sz: 4096 	 Sm: 0 	 T: write_back(1.758947)
F:  7600729----T:  7603334 	 St: c06c0000 Sz: 4096 	 Sm: 0 	 T: memcpy_h2d(1.758947)
F:  7600729----T:  7603334 	 St: c0906000 Sz: 4096 	 Sm: 0 	 T: write_back(1.758947)
F:  7603334----T:  7605939 	 St: c07a7000 Sz: 4096 	 Sm: 0 	 T: memcpy_h2d(1.758947)
F:  7603334----T:  7605939 	 St: c06f7000 Sz: 4096 	 Sm: 0 	 T: write_back(1.758947)
F:  7605939----T:  7608544 	 St: c0b98000 Sz: 4096 	 Sm: 0 	 T: memcpy_h2d(1.758947)
F:  7605939----T:  7608544 	 St: c094b000 Sz: 4096 	 Sm: 0 	 T: write_back(1.758947)
F:  7608544----T:  7611149 	 St: c0b93000 Sz: 4096 	 Sm: 0 	 T: memcpy_h2d(1.758947)
F:  7608544----T:  7611149 	 St: c0533000 Sz: 4096 	 Sm: 0 	 T: write_back(1.758947)
F:  7611150----T:  7613755 	 St: c0b9f000 Sz: 4096 	 Sm: 0 	 T: memcpy_h2d(1.758947)
F:  7611150----T:  7613755 	 St: c023c000 Sz: 4096 	 Sm: 0 	 T: write_back(1.758947)
F:  7613755----T:  7616360 	 St: c0390000 Sz: 4096 	 Sm: 0 	 T: memcpy_h2d(1.758947)
F:  7613755----T:  7616360 	 St: c09c5000 Sz: 4096 	 Sm: 0 	 T: write_back(1.758947)
F:  7616360----T:  7618965 	 St: c0394000 Sz: 4096 	 Sm: 0 	 T: memcpy_h2d(1.758947)
F:  7616360----T:  7618965 	 St: c0909000 Sz: 4096 	 Sm: 0 	 T: write_back(1.758947)
F:  7618965----T:  7621570 	 St: c0398000 Sz: 4096 	 Sm: 0 	 T: memcpy_h2d(1.758947)
F:  7618965----T:  7621570 	 St: c0864000 Sz: 4096 	 Sm: 0 	 T: write_back(1.758947)
F:  7621571----T:  7624176 	 St: c039c000 Sz: 4096 	 Sm: 0 	 T: memcpy_h2d(1.758947)
F:  7621571----T:  7624176 	 St: c0957000 Sz: 4096 	 Sm: 0 	 T: write_back(1.758947)
F:  7624743----T:  7627348 	 St: c07aa000 Sz: 4096 	 Sm: 0 	 T: memcpy_h2d(1.758947)
F:  7624743----T:  7627348 	 St: c0229000 Sz: 4096 	 Sm: 0 	 T: write_back(1.758947)
F:  7627348----T:  7629953 	 St: c07bf000 Sz: 4096 	 Sm: 0 	 T: memcpy_h2d(1.758947)
F:  7627348----T:  7629953 	 St: c04c1000 Sz: 4096 	 Sm: 0 	 T: write_back(1.758947)
F:  7629953----T:  7632558 	 St: c07b9000 Sz: 4096 	 Sm: 0 	 T: memcpy_h2d(1.758947)
F:  7629953----T:  7632558 	 St: c02cf000 Sz: 4096 	 Sm: 0 	 T: write_back(1.758947)
F:  7632559----T:  7635164 	 St: c0baa000 Sz: 4096 	 Sm: 0 	 T: memcpy_h2d(1.758947)
F:  7632559----T:  7635164 	 St: c03a5000 Sz: 4096 	 Sm: 0 	 T: write_back(1.758947)
F:  7635164----T:  7637769 	 St: c03b4000 Sz: 4096 	 Sm: 0 	 T: memcpy_h2d(1.758947)
F:  7635164----T:  7637769 	 St: c0a63000 Sz: 4096 	 Sm: 0 	 T: write_back(1.758947)
F:  7637769----T:  7640374 	 St: c03be000 Sz: 4096 	 Sm: 0 	 T: memcpy_h2d(1.758947)
F:  7637769----T:  7640374 	 St: c0650000 Sz: 4096 	 Sm: 0 	 T: write_back(1.758947)
F:  7640374----T:  7642979 	 St: c03bf000 Sz: 4096 	 Sm: 0 	 T: memcpy_h2d(1.758947)
F:  7640374----T:  7642979 	 St: c081d000 Sz: 4096 	 Sm: 0 	 T: write_back(1.758947)
F:  7642979----T:  7645584 	 St: c03a9000 Sz: 4096 	 Sm: 0 	 T: memcpy_h2d(1.758947)
F:  7642979----T:  7645584 	 St: c0685000 Sz: 4096 	 Sm: 0 	 T: write_back(1.758947)
F:  7645584----T:  7648189 	 St: c03aa000 Sz: 4096 	 Sm: 0 	 T: memcpy_h2d(1.758947)
F:  7645584----T:  7648189 	 St: c01f3000 Sz: 4096 	 Sm: 0 	 T: write_back(1.758947)
F:  7648189----T:  7650794 	 St: c03ae000 Sz: 4096 	 Sm: 0 	 T: memcpy_h2d(1.758947)
F:  7648189----T:  7650794 	 St: c09bd000 Sz: 4096 	 Sm: 0 	 T: write_back(1.758947)
F:  7650794----T:  7653399 	 St: c03af000 Sz: 4096 	 Sm: 0 	 T: memcpy_h2d(1.758947)
F:  7650794----T:  7653399 	 St: c0508000 Sz: 4096 	 Sm: 0 	 T: write_back(1.758947)
F:  7653400----T:  7656005 	 St: c03ac000 Sz: 4096 	 Sm: 0 	 T: memcpy_h2d(1.758947)
F:  7653400----T:  7656005 	 St: c094e000 Sz: 4096 	 Sm: 0 	 T: write_back(1.758947)
F:  7656399----T:  7659004 	 St: c07ca000 Sz: 4096 	 Sm: 0 	 T: memcpy_h2d(1.758947)
F:  7656399----T:  7659004 	 St: c0174000 Sz: 4096 	 Sm: 0 	 T: write_back(1.758947)
F:  7659004----T:  7661609 	 St: c07cb000 Sz: 4096 	 Sm: 0 	 T: memcpy_h2d(1.758947)
F:  7659004----T:  7661609 	 St: c06ae000 Sz: 4096 	 Sm: 0 	 T: write_back(1.758947)
F:  7661609----T:  7664214 	 St: c0bc6000 Sz: 4096 	 Sm: 0 	 T: memcpy_h2d(1.758947)
F:  7661609----T:  7664214 	 St: c01e5000 Sz: 4096 	 Sm: 0 	 T: write_back(1.758947)
F:  7664214----T:  7666819 	 St: c0bc5000 Sz: 4096 	 Sm: 0 	 T: memcpy_h2d(1.758947)
F:  7664214----T:  7666819 	 St: c060b000 Sz: 4096 	 Sm: 0 	 T: write_back(1.758947)
F:  7666819----T:  7669424 	 St: c07cf000 Sz: 4096 	 Sm: 0 	 T: memcpy_h2d(1.758947)
F:  7666819----T:  7669424 	 St: c0239000 Sz: 4096 	 Sm: 0 	 T: write_back(1.758947)
F:  7669424----T:  7672029 	 St: c0bd3000 Sz: 4096 	 Sm: 0 	 T: memcpy_h2d(1.758947)
F:  7669424----T:  7672029 	 St: c099d000 Sz: 4096 	 Sm: 0 	 T: write_back(1.758947)
F:  7672029----T:  7674634 	 St: c07d9000 Sz: 4096 	 Sm: 0 	 T: memcpy_h2d(1.758947)
F:  7672029----T:  7674634 	 St: c0144000 Sz: 4096 	 Sm: 0 	 T: write_back(1.758947)
F:  7674634----T:  7677239 	 St: c07e3000 Sz: 4096 	 Sm: 0 	 T: memcpy_h2d(1.758947)
F:  7674634----T:  7677239 	 St: c011b000 Sz: 4096 	 Sm: 0 	 T: write_back(1.758947)
F:  7677239----T:  7679844 	 St: c07e4000 Sz: 4096 	 Sm: 0 	 T: memcpy_h2d(1.758947)
F:  7677239----T:  7679844 	 St: c0130000 Sz: 4096 	 Sm: 0 	 T: write_back(1.758947)
F:  7679844----T:  7682449 	 St: c0bd0000 Sz: 4096 	 Sm: 0 	 T: memcpy_h2d(1.758947)
F:  7679844----T:  7682449 	 St: c0ba6000 Sz: 4096 	 Sm: 0 	 T: write_back(1.758947)
F:  7682449----T:  7685054 	 St: c0bdd000 Sz: 4096 	 Sm: 0 	 T: memcpy_h2d(1.758947)
F:  7682449----T:  7685054 	 St: c07d6000 Sz: 4096 	 Sm: 0 	 T: write_back(1.758947)
F:  7685054----T:  7687659 	 St: c0be0000 Sz: 4096 	 Sm: 0 	 T: memcpy_h2d(1.758947)
F:  7685054----T:  7687659 	 St: c0be7000 Sz: 4096 	 Sm: 0 	 T: write_back(1.758947)
F:  7687659----T:  7690264 	 St: c03c3000 Sz: 4096 	 Sm: 0 	 T: memcpy_h2d(1.758947)
F:  7687659----T:  7690264 	 St: c02a5000 Sz: 4096 	 Sm: 0 	 T: write_back(1.758947)
F:  7690265----T:  7692870 	 St: c0bd9000 Sz: 4096 	 Sm: 0 	 T: memcpy_h2d(1.758947)
F:  7690265----T:  7692870 	 St: c01b6000 Sz: 4096 	 Sm: 0 	 T: write_back(1.758947)
F:  7693209----T:  7695814 	 St: c07d6000 Sz: 4096 	 Sm: 0 	 T: memcpy_h2d(1.758947)
F:  7693209----T:  7695814 	 St: c0882000 Sz: 4096 	 Sm: 0 	 T: write_back(1.758947)
F:  7695814----T:  7698419 	 St: c07ea000 Sz: 4096 	 Sm: 0 	 T: memcpy_h2d(1.758947)
F:  7695814----T:  7698419 	 St: c0ac9000 Sz: 4096 	 Sm: 0 	 T: write_back(1.758947)
F:  7698419----T:  7701024 	 St: c07f0000 Sz: 4096 	 Sm: 0 	 T: memcpy_h2d(1.758947)
F:  7698419----T:  7701024 	 St: c09e4000 Sz: 4096 	 Sm: 0 	 T: write_back(1.758947)
F:  7701024----T:  7703629 	 St: c0743000 Sz: 4096 	 Sm: 0 	 T: memcpy_h2d(1.758947)
F:  7701024----T:  7703629 	 St: c0b4b000 Sz: 4096 	 Sm: 0 	 T: write_back(1.758947)
F:  7703629----T:  7706234 	 St: c0be7000 Sz: 4096 	 Sm: 0 	 T: memcpy_h2d(1.758947)
F:  7703629----T:  7706234 	 St: c0078000 Sz: 4096 	 Sm: 0 	 T: write_back(1.758947)
F:  7706234----T:  7708839 	 St: c0bec000 Sz: 4096 	 Sm: 0 	 T: memcpy_h2d(1.758947)
F:  7706234----T:  7708839 	 St: c019f000 Sz: 4096 	 Sm: 0 	 T: write_back(1.758947)
F:  7708839----T:  7711444 	 St: c03ce000 Sz: 4096 	 Sm: 0 	 T: memcpy_h2d(1.758947)
F:  7708839----T:  7711444 	 St: c00a4000 Sz: 4096 	 Sm: 0 	 T: write_back(1.758947)
F:  7711445----T:  7714050 	 St: c03da000 Sz: 4096 	 Sm: 0 	 T: memcpy_h2d(1.758947)
F:  7711445----T:  7714050 	 St: c01f6000 Sz: 4096 	 Sm: 0 	 T: write_back(1.758947)
F:  7715233----T:  7717838 	 St: c07f4000 Sz: 4096 	 Sm: 0 	 T: memcpy_h2d(1.758947)
F:  7715233----T:  7717838 	 St: c0449000 Sz: 4096 	 Sm: 0 	 T: write_back(1.758947)
F:  7717838----T:  7720443 	 St: c07f5000 Sz: 4096 	 Sm: 0 	 T: memcpy_h2d(1.758947)
F:  7717838----T:  7720443 	 St: c0338000 Sz: 4096 	 Sm: 0 	 T: write_back(1.758947)
F:  7720443----T:  7723048 	 St: c0bfb000 Sz: 4096 	 Sm: 0 	 T: memcpy_h2d(1.758947)
F:  7720443----T:  7723048 	 St: c05ea000 Sz: 4096 	 Sm: 0 	 T: write_back(1.758947)
F:  7723048----T:  7725653 	 St: c0bff000 Sz: 4096 	 Sm: 0 	 T: memcpy_h2d(1.758947)
F:  7723048----T:  7725653 	 St: c051b000 Sz: 4096 	 Sm: 0 	 T: write_back(1.758947)
F:  7725654----T:  7728259 	 St: c0bfd000 Sz: 4096 	 Sm: 0 	 T: memcpy_h2d(1.758947)
F:  7725654----T:  7728259 	 St: c09db000 Sz: 4096 	 Sm: 0 	 T: write_back(1.758947)
F:  7731728----T:  7734333 	 St: c03f0000 Sz: 4096 	 Sm: 0 	 T: memcpy_h2d(1.758947)
F:  7731728----T:  7734333 	 St: c02b4000 Sz: 4096 	 Sm: 0 	 T: write_back(1.758947)
F:  7734333----T:  7736938 	 St: c03f1000 Sz: 4096 	 Sm: 0 	 T: memcpy_h2d(1.758947)
F:  7734333----T:  7736938 	 St: c0184000 Sz: 4096 	 Sm: 0 	 T: write_back(1.758947)
F:  7736939----T:  7739544 	 St: c03f7000 Sz: 4096 	 Sm: 0 	 T: memcpy_h2d(1.758947)
F:  7736939----T:  7739544 	 St: c003d000 Sz: 4096 	 Sm: 0 	 T: write_back(1.758947)
F:  7739846----T:  7742451 	 St: 0 Sz: 4096 	 Sm: 0 	 T: device_sync(1.758947)
F:  7739846----T:  7748086 	 St: 0 Sz: 61440 	 Sm: 0 	 T: device_sync(5.563808)
F:  7750691----T:  7753296 	 St: 0 Sz: 4096 	 Sm: 0 	 T: device_sync(1.758947)
F:  7750691----T:  7758931 	 St: 0 Sz: 61440 	 Sm: 0 	 T: device_sync(5.563808)
F:  7761536----T:  7764141 	 St: 0 Sz: 4096 	 Sm: 0 	 T: device_sync(1.758947)
F:  7761536----T:  7777231 	 St: 0 Sz: 126976 	 Sm: 0 	 T: device_sync(10.597569)
F:  7779836----T:  7782441 	 St: 0 Sz: 4096 	 Sm: 0 	 T: device_sync(1.758947)
F:  7779836----T:  7810559 	 St: 0 Sz: 258048 	 Sm: 0 	 T: device_sync(20.744766)
F:  7813164----T:  7815769 	 St: 0 Sz: 4096 	 Sm: 0 	 T: device_sync(1.758947)
F:  7813164----T:  7874000 	 St: 0 Sz: 520192 	 Sm: 0 	 T: device_sync(41.077652)
F:  7876605----T:  7879210 	 St: 0 Sz: 4096 	 Sm: 0 	 T: device_sync(1.758947)
F:  7876605----T:  7997694 	 St: 0 Sz: 1044480 	 Sm: 0 	 T: device_sync(81.761650)
F:  8000299----T:  8002904 	 St: 0 Sz: 4096 	 Sm: 0 	 T: device_sync(1.758947)
F:  8000299----T:  8008539 	 St: 0 Sz: 61440 	 Sm: 0 	 T: device_sync(5.563808)
F:  8011144----T:  8013749 	 St: 0 Sz: 4096 	 Sm: 0 	 T: device_sync(1.758947)
F:  8011144----T:  8019384 	 St: 0 Sz: 61440 	 Sm: 0 	 T: device_sync(5.563808)
F:  8021989----T:  8024594 	 St: 0 Sz: 4096 	 Sm: 0 	 T: device_sync(1.758947)
F:  8021989----T:  8037684 	 St: 0 Sz: 126976 	 Sm: 0 	 T: device_sync(10.597569)
F:  8040289----T:  8042894 	 St: 0 Sz: 4096 	 Sm: 0 	 T: device_sync(1.758947)
F:  8040289----T:  8071012 	 St: 0 Sz: 258048 	 Sm: 0 	 T: device_sync(20.744766)
F:  8073617----T:  8076222 	 St: 0 Sz: 4096 	 Sm: 0 	 T: device_sync(1.758947)
F:  8073617----T:  8134453 	 St: 0 Sz: 520192 	 Sm: 0 	 T: device_sync(41.077652)
F:  8137058----T:  8139663 	 St: 0 Sz: 4096 	 Sm: 0 	 T: device_sync(1.758947)
F:  8137058----T:  8258147 	 St: 0 Sz: 1044480 	 Sm: 0 	 T: device_sync(81.761650)
F:  8260752----T:  8263357 	 St: 0 Sz: 4096 	 Sm: 0 	 T: device_sync(1.758947)
F:  8260752----T:  8268992 	 St: 0 Sz: 61440 	 Sm: 0 	 T: device_sync(5.563808)
F:  8271597----T:  8274202 	 St: 0 Sz: 4096 	 Sm: 0 	 T: device_sync(1.758947)
F:  8271597----T:  8279837 	 St: 0 Sz: 61440 	 Sm: 0 	 T: device_sync(5.563808)
F:  8282442----T:  8285047 	 St: 0 Sz: 4096 	 Sm: 0 	 T: device_sync(1.758947)
F:  8282442----T:  8298137 	 St: 0 Sz: 126976 	 Sm: 0 	 T: device_sync(10.597569)
F:  8300742----T:  8303347 	 St: 0 Sz: 4096 	 Sm: 0 	 T: device_sync(1.758947)
F:  8300742----T:  8331465 	 St: 0 Sz: 258048 	 Sm: 0 	 T: device_sync(20.744766)
F:  8334070----T:  8336675 	 St: 0 Sz: 4096 	 Sm: 0 	 T: device_sync(1.758947)
F:  8334070----T:  8394906 	 St: 0 Sz: 520192 	 Sm: 0 	 T: device_sync(41.077652)
F:  8397511----T:  8400116 	 St: 0 Sz: 4096 	 Sm: 0 	 T: device_sync(1.758947)
F:  8397511----T:  8518600 	 St: 0 Sz: 1044480 	 Sm: 0 	 T: device_sync(81.761650)
F:  8521205----T:  8523810 	 St: 0 Sz: 4096 	 Sm: 0 	 T: device_sync(1.758947)
F:  8521205----T:  8529445 	 St: 0 Sz: 61440 	 Sm: 0 	 T: device_sync(5.563808)
F:  8532050----T:  8534655 	 St: 0 Sz: 4096 	 Sm: 0 	 T: device_sync(1.758947)
F:  8532050----T:  8540290 	 St: 0 Sz: 61440 	 Sm: 0 	 T: device_sync(5.563808)
F:  8542895----T:  8545500 	 St: 0 Sz: 4096 	 Sm: 0 	 T: device_sync(1.758947)
F:  8542895----T:  8558590 	 St: 0 Sz: 126976 	 Sm: 0 	 T: device_sync(10.597569)
F:  8561195----T:  8563800 	 St: 0 Sz: 4096 	 Sm: 0 	 T: device_sync(1.758947)
F:  8561195----T:  8591918 	 St: 0 Sz: 258048 	 Sm: 0 	 T: device_sync(20.744766)
F:  8594523----T:  8597128 	 St: 0 Sz: 4096 	 Sm: 0 	 T: device_sync(1.758947)
F:  8594523----T:  8618195 	 St: 0 Sz: 196608 	 Sm: 0 	 T: device_sync(15.983795)
Tot_prefetch_time: 0(cycle), 0.000000(us)
Tot_kernel_exec_time: 6851246(cycle), 4626.094727(us)
Tot_kernel_exec_time_and_fault_time: 125212766(cycle), 84546.093750(us)
Tot_memcpy_h2d_time: 6479974(cycle), 4375.404297(us)
Tot_memcpy_d2h_time: 0(cycle), 0.000000(us)
Tot_memcpy_time: 6479974(cycle), 4375.404297(us)
Tot_devicesync_time: 880954(cycle), 594.837280(us)
Tot_writeback_time: 5105800(cycle), 3447.535400(us)
Tot_dma_time: 0(cycle), 0.000000(us)
Tot_memcpy_d2h_sync_wb_time: 5986754(cycle), 4042.372803(us)
GPGPU-Sim: *** exit detected ***
