

        *** GPGPU-Sim Simulator Version 3.2.2  [build gpgpu-sim_git-commit-1c1adf09f9d1bccf70ff97255c2b46b40ff0e800_modified_0] ***


GPGPU-Sim PTX: simulation mode 0 (can change with PTX_SIM_MODE_FUNC environment variable:
               1=functional simulation only, 0=detailed performance simulator)
GPGPU-Sim: Configuration options:

-network_mode                           1 # Interconnection network mode
-inter_config_file   config_fermi_islip.icnt # Interconnection network config file
-gpgpu_ptx_use_cuobjdump                    1 # Use cuobjdump to extract ptx and sass from binaries
-gpgpu_experimental_lib_support                    0 # Try to extract code from cuda libraries [Broken because of unknown cudaGetExportTable]
-gpgpu_ptx_convert_to_ptxplus                    0 # Convert SASS (native ISA) to ptxplus and run ptxplus
-gpgpu_ptx_force_max_capability                   20 # Force maximum compute capability
-gpgpu_ptx_inst_debug_to_file                    0 # Dump executed instructions' debug information to file
-gpgpu_ptx_inst_debug_file       inst_debug.txt # Executed instructions' debug output file
-gpgpu_ptx_inst_debug_thread_uid                    1 # Thread UID for executed instructions' debug output
-gpgpu_simd_model                       1 # 1 = post-dominator
-gpgpu_shader_core_pipeline              2048:32 # shader core pipeline config, i.e., {<nthread>:<warpsize>}
-gpgpu_tex_cache:l1  16:128:24,L:R:m:N:L,F:128:4,128:2 # per-shader L1 texture cache  (READ-ONLY) config  {<nsets>:<bsize>:<assoc>,<rep>:<wr>:<alloc>:<wr_alloc>,<mshr>:<N>:<merge>,<mq>:<rf>}
-gpgpu_const_cache:l1 128:64:2,L:R:f:N:L,A:2:64,4 # per-shader L1 constant memory cache  (READ-ONLY) config  {<nsets>:<bsize>:<assoc>,<rep>:<wr>:<alloc>:<wr_alloc>,<mshr>:<N>:<merge>,<mq>} 
-gpgpu_cache:il1     8:128:4,L:R:f:N:L,A:2:48,4 # shader L1 instruction cache config  {<nsets>:<bsize>:<assoc>,<rep>:<wr>:<alloc>:<wr_alloc>,<mshr>:<N>:<merge>,<mq>} 
-gpgpu_cache:dl1     64:128:6,L:L:m:N:H,A:128:8,8 # per-shader L1 data cache config  {<nsets>:<bsize>:<assoc>,<rep>:<wr>:<alloc>:<wr_alloc>,<mshr>:<N>:<merge>,<mq> | none}
-gpgpu_cache:dl1PrefL1                 none # per-shader L1 data cache config  {<nsets>:<bsize>:<assoc>,<rep>:<wr>:<alloc>:<wr_alloc>,<mshr>:<N>:<merge>,<mq> | none}
-gpgpu_cache:dl1PrefShared                 none # per-shader L1 data cache config  {<nsets>:<bsize>:<assoc>,<rep>:<wr>:<alloc>:<wr_alloc>,<mshr>:<N>:<merge>,<mq> | none}
-gmem_skip_L1D                          1 # global memory access skip L1D cache (implements -Xptxas -dlcm=cg, default=no skip)
-gpgpu_perfect_mem                      0 # enable perfect memory mode (no cache miss)
-n_regfile_gating_group                    4 # group of lanes that should be read/written together)
-gpgpu_clock_gated_reg_file                    0 # enable clock gated reg file for power calculations
-gpgpu_clock_gated_lanes                    0 # enable clock gated lanes for power calculations
-gpgpu_shader_registers                65536 # Number of registers per shader core. Limits number of concurrent CTAs. (default 8192)
-gpgpu_shader_cta                      32 # Maximum number of concurrent CTAs in shader (default 8)
-gpgpu_num_cta_barriers                   16 # Maximum number of named barriers per CTA (default 16)
-gpgpu_n_clusters                      28 # number of processing clusters
-gpgpu_n_cores_per_cluster                    1 # number of simd cores per cluster
-gpgpu_n_cluster_ejection_buffer_size                    8 # number of packets in ejection buffer
-gpgpu_n_ldst_response_buffer_size                    2 # number of response packets in ld/st unit ejection buffer
-gpgpu_shmem_size                   16384 # Size of shared memory per shader core (default 16kB)
-gpgpu_shmem_size                   98304 # Size of shared memory per shader core (default 16kB)
-gpgpu_shmem_size_PrefL1                16384 # Size of shared memory per shader core (default 16kB)
-gpgpu_shmem_size_PrefShared                16384 # Size of shared memory per shader core (default 16kB)
-gpgpu_shmem_num_banks                   32 # Number of banks in the shared memory in each shader core (default 16)
-gpgpu_shmem_limited_broadcast                    0 # Limit shared memory to do one broadcast per cycle (default on)
-gpgpu_shmem_warp_parts                    1 # Number of portions a warp is divided into for shared memory bank conflict check 
-gpgpu_warpdistro_shader                   -1 # Specify which shader core to collect the warp size distribution from
-gpgpu_warp_issue_shader                    0 # Specify which shader core to collect the warp issue distribution from
-gpgpu_local_mem_map                    1 # Mapping from local memory space address to simulated GPU physical address space (default = enabled)
-gpgpu_num_reg_banks                   32 # Number of register banks (default = 8)
-gpgpu_reg_bank_use_warp_id                    0 # Use warp ID in mapping registers to banks (default = off)
-gpgpu_operand_collector_num_units_sp                   20 # number of collector units (default = 4)
-gpgpu_operand_collector_num_units_sfu                    4 # number of collector units (default = 4)
-gpgpu_operand_collector_num_units_mem                    8 # number of collector units (default = 2)
-gpgpu_operand_collector_num_units_gen                    0 # number of collector units (default = 0)
-gpgpu_operand_collector_num_in_ports_sp                    4 # number of collector unit in ports (default = 1)
-gpgpu_operand_collector_num_in_ports_sfu                    1 # number of collector unit in ports (default = 1)
-gpgpu_operand_collector_num_in_ports_mem                    1 # number of collector unit in ports (default = 1)
-gpgpu_operand_collector_num_in_ports_gen                    0 # number of collector unit in ports (default = 0)
-gpgpu_operand_collector_num_out_ports_sp                    4 # number of collector unit in ports (default = 1)
-gpgpu_operand_collector_num_out_ports_sfu                    1 # number of collector unit in ports (default = 1)
-gpgpu_operand_collector_num_out_ports_mem                    1 # number of collector unit in ports (default = 1)
-gpgpu_operand_collector_num_out_ports_gen                    0 # number of collector unit in ports (default = 0)
-gpgpu_coalesce_arch                   13 # Coalescing arch (default = 13, anything else is off for now)
-gpgpu_num_sched_per_core                    2 # Number of warp schedulers per core
-gpgpu_max_insn_issue_per_warp                    2 # Max number of instructions that can be issued per warp in one cycle by scheduler
-gpgpu_simt_core_sim_order                    1 # Select the simulation order of cores in a cluster (0=Fix, 1=Round-Robin)
-gpgpu_pipeline_widths        4,1,1,4,1,1,6 # Pipeline widths ID_OC_SP,ID_OC_SFU,ID_OC_MEM,OC_EX_SP,OC_EX_SFU,OC_EX_MEM,EX_WB
-gpgpu_num_sp_units                     4 # Number of SP units (default=1)
-gpgpu_num_sfu_units                    1 # Number of SF units (default=1)
-gpgpu_num_mem_units                    1 # Number if ldst units (default=1) WARNING: not hooked up to anything
-gpgpu_scheduler                      gto # Scheduler configuration: < lrr | gto | two_level_active > If two_level_active:<num_active_warps>:<inner_prioritization>:<outer_prioritization>For complete list of prioritization values see shader.h enum scheduler_prioritization_typeDefault: gto
-gpgpu_concurrent_kernel_sm                    0 # Support concurrent kernels on a SM (default = disabled)
-tlb_size                            4096 # Number of tlb entries per SM.
-gpgpu_dram_scheduler                    1 # 0 = fifo, 1 = FR-FCFS (defaul)
-gpgpu_dram_partition_queues              8:8:8:8 # i2$:$2d:d2$:$2i
-l2_ideal                               0 # Use a ideal L2 cache that always hit
-gpgpu_cache:dl2     64:128:16,L:B:m:W:L,A:1024:1024,4:0,32 # unified banked L2 data cache config  {<nsets>:<bsize>:<assoc>,<rep>:<wr>:<alloc>:<wr_alloc>,<mshr>:<N>:<merge>,<mq>}
-gpgpu_cache:dl2_texture_only                    0 # L2 cache used for texture only
-gpgpu_n_mem                           11 # number of memory modules (e.g. memory controllers) in gpu
-gpgpu_n_sub_partition_per_mchannel                    2 # number of memory subpartition in each memory module
-gpgpu_n_mem_per_ctrlr                    1 # number of memory chips per memory controller
-gpgpu_memlatency_stat                   14 # track and display latency statistics 0x2 enables MC, 0x4 enables queue logs
-gpgpu_frfcfs_dram_sched_queue_size                   64 # 0 = unlimited (default); # entries per chip
-gpgpu_dram_return_queue_size                  116 # 0 = unlimited (default); # entries per chip
-gpgpu_dram_buswidth                    4 # default = 4 bytes (8 bytes per cycle at DDR)
-gpgpu_dram_burst_length                    8 # Burst length of each DRAM request (default = 4 data bus cycle)
-dram_data_command_freq_ratio                    4 # Frequency ratio between DRAM data bus and command bus (default = 2 times, i.e. DDR)
-gpgpu_dram_timing_opt nbk=16:CCD=2:RRD=6:RCD=12:RAS=28:RP=12:RC=40: CL=12:WL=4:CDLR=5:WR=12:nbkgrp=1:CCDL=0:RTPL=0 # DRAM timing parameters = {nbk:tCCD:tRRD:tRCD:tRAS:tRP:tRC:CL:WL:tCDLR:tWR:nbkgrp:tCCDL:tRTPL}
-rop_latency                          120 # ROP queue latency (default 85)
-dram_latency                         100 # DRAM latency (default 30)
-gpgpu_mem_addr_mapping dramid@8;00000000.00000000.00000000.00000000.0000RRRR.RRRRRRRR.RBBBCCCC.BCCSSSSS # mapping memory address to dram model {dramid@<start bit>;<memory address map>}
-gpgpu_mem_addr_test                    0 # run sweep test to check address mapping for aliased address
-gpgpu_mem_address_mask                    1 # 0 = old addressing mask, 1 = new addressing mask, 2 = new add. mask + flipped bank sel and chip sel bits
-gpuwattch_xml_file  gpuwattch_geforcegtx1080ti.xml # GPUWattch XML file
-power_simulation_enabled                    1 # Turn on power simulator (1=On, 0=Off)
-power_per_cycle_dump                    0 # Dump detailed power output each cycle
-power_trace_enabled                    0 # produce a file for the power trace (1=On, 0=Off)
-power_trace_zlevel                     6 # Compression level of the power trace output log (0=no comp, 9=highest)
-steady_power_levels_enabled                    0 # produce a file for the steady power levels (1=On, 0=Off)
-steady_state_definition                  8:4 # allowed deviation:number of samples
-gpgpu_max_cycle                        0 # terminates gpu simulation early (0 = no limit)
-gpgpu_max_insn                         0 # terminates gpu simulation early (0 = no limit)
-gpgpu_max_cta                          0 # terminates gpu simulation early (0 = no limit)
-gpgpu_runtime_stat                   500 # display runtime statistics such as dram utilization {<freq>:<flag>}
-liveness_message_freq                    1 # Minimum number of seconds between simulation liveness messages (0 = always print)
-gpgpu_flush_l1_cache                    0 # Flush L1 cache at the end of each kernel call
-gpgpu_flush_l2_cache                    0 # Flush L2 cache at the end of each kernel call
-gpgpu_deadlock_detect                    0 # Stop the simulation at deadlock (1=on (default), 0=off)
-gpgpu_ptx_instruction_classification                    0 # if enabled will classify ptx instruction types per kernel (Max 255 kernels now)
-gpgpu_ptx_sim_mode                     0 # Select between Performance (default) or Functional simulation (1)
-gpgpu_clock_domains 1481.0:2962.0:1481.0:2750.0 # Clock Domain Frequencies in MhZ {<Core Clock>:<ICNT Clock>:<L2 Clock>:<DRAM Clock>}
-gpgpu_max_concurrent_kernel                    8 # maximum kernels that can run concurrently on GPU
-gpgpu_cflog_interval                    0 # Interval between each snapshot in control flow logger
-visualizer_enabled                     0 # Turn on visualizer output (1=On, 0=Off)
-visualizer_outputfile                 NULL # Specifies the output log file for visualizer
-visualizer_zlevel                      6 # Compression level of the visualizer output log (0=no comp, 9=highest)
-trace_enabled                          0 # Turn on traces
-trace_components                    none # comma seperated list of traces to enable. Complete list found in trace_streams.tup. Default none
-trace_sampling_core                    0 # The core which is printed using CORE_DPRINTF. Default 0
-trace_sampling_memory_partition                   -1 # The memory partition which is printed using MEMPART_DPRINTF. Default -1 (i.e. all)
-gddr_size                          9.6MB # Size of GDDR in MB/GB.(GLOBAL_HEAP_START, GLOBAL_HEAP_START + gddr_size) would be used for unmanged memory, (GLOBAL_HEAP_START + gddr_size, GLOBAL_HEAP_START + gddr_size*2) would be used for managed memory. 
-page_table_walk_latency                  100 # Average page table walk latency (in core cycle).
-eviction_policy                        0 # Select page eviction policy
-invalidate_clean                       0 # Should directly invalidate clean pages
-reserve_accessed_page_percent                    0 # Percentage of accessed pages reserved from eviction in hope that they will be accessed in next iteration.
-percentage_of_free_page_buffer                    0 # Percentage of free page buffer to trigger the page eviction.
-page_size                            4KB # GDDR page size, only 4KB/2MB avaliable.
-pcie_bandwidth                  16.0GB/s # PCI-e bandwidth per direction, in GB/s.
-enable_dma                             0 # Enable direct access to CPU memory
-multiply_dma_penalty                    2 # Oversubscription Multiplicative Penalty Factor for Adaptive DMA
-migrate_threshold                      8 # Access counter threshold for migrating the page from cpu to gpu
-sim_prof_enable                        1 # Enable gpgpu-sim profiler
-hardware_prefetch                      1 # Select gpgpu-sim hardware prefetcher
-hwprefetch_oversub                     1 # Select gpgpu-sim hardware prefetcher under over-subscription
-page_fault_latency                 66645 # Average fault latency (in core cycle).
-enable_accurate_simulation                    0 # Enable page fault functional simulation.
-enable_ptx_file_line_stats                    1 # Turn on PTX source line statistic profiling. (1 = On)
-ptx_line_stats_filename gpgpu_inst_stats.txt # Output file for PTX source line statistics.
-gpgpu_kernel_launch_latency               222150 # Kernel launch latency in cycles. Default: 0
-gpgpu_cdp_enabled                      0 # Turn on CDP
-save_embedded_ptx                      0 # saves ptx files embedded in binary as <n>.ptx
-keep                                   0 # keep intermediate files created by GPGPU-Sim when interfacing with external programs
-gpgpu_ptx_save_converted_ptxplus                    0 # Saved converted ptxplus to a file
-ptx_opcode_latency_int         4,13,4,5,145 # Opcode latencies for integers <ADD,MAX,MUL,MAD,DIV>Default 1,1,19,25,145
-ptx_opcode_latency_fp          4,13,4,5,39 # Opcode latencies for single precision floating points <ADD,MAX,MUL,MAD,DIV>Default 1,1,1,1,30
-ptx_opcode_latency_dp         8,19,8,8,330 # Opcode latencies for double precision floating points <ADD,MAX,MUL,MAD,DIV>Default 8,8,8,8,335
-ptx_opcode_initiation_int            1,2,2,2,8 # Opcode initiation intervals for integers <ADD,MAX,MUL,MAD,DIV>Default 1,1,4,4,32
-ptx_opcode_initiation_fp            1,2,1,1,4 # Opcode initiation intervals for single precision floating points <ADD,MAX,MUL,MAD,DIV>Default 1,1,1,1,5
-ptx_opcode_initiation_dp          1,2,1,1,130 # Opcode initiation intervals for double precision floating points <ADD,MAX,MUL,MAD,DIV>Default 8,8,8,8,130
-cdp_latency         7200,8000,100,12000,1600 # CDP API latency <cudaStreamCreateWithFlags, cudaGetParameterBufferV2_init_perWarp, cudaGetParameterBufferV2_perKernel, cudaLaunchDeviceV2_init_perWarp, cudaLaunchDevicV2_perKernel>Default 7200,8000,100,12000,1600
DRAM Timing Options:
nbk                                    16 # number of banks
CCD                                     2 # column to column delay
RRD                                     6 # minimal delay between activation of rows in different banks
RCD                                    12 # row to column delay
RAS                                    28 # time needed to activate row
RP                                     12 # time needed to precharge (deactivate) row
RC                                     40 # row cycle time
CDLR                                    5 # switching from write to read (changes tWTR)
WR                                     12 # last data-in to row precharge
CL                                     12 # CAS latency
WL                                      4 # Write latency
nbkgrp                                  1 # number of bank groups
CCDL                                    0 # column to column delay between accesses to different bank groups
RTPL                                    0 # read to precharge delay between accesses to different bank groups
Total number of memory sub partition = 22
addr_dec_mask[CHIP]  = 0000000000000000 	high:64 low:0
addr_dec_mask[BK]    = 0000000000007080 	high:15 low:7
addr_dec_mask[ROW]   = 000000000fff8000 	high:28 low:15
addr_dec_mask[COL]   = 0000000000000f7f 	high:12 low:0
addr_dec_mask[BURST] = 000000000000001f 	high:5 low:0
sub_partition_id_mask = 0000000000000080
GPGPU-Sim uArch: clock freqs: 1481000000.000000:2962000000.000000:1481000000.000000:2750000000.000000
GPGPU-Sim uArch: clock periods: 0.00000000067521944632:0.00000000033760972316:0.00000000067521944632:0.00000000036363636364
*** Initializing Memory Statistics ***
GPGPU-Sim uArch: interconnect node map (shaderID+MemID to icntID)
GPGPU-Sim uArch: Memory nodes ID start from index: 28
GPGPU-Sim uArch:    0   1   2   3   4   5   6
GPGPU-Sim uArch:    7   8   9  10  11  12  13
GPGPU-Sim uArch:   14  15  16  17  18  19  20
GPGPU-Sim uArch:   21  22  23  24  25  26  27
GPGPU-Sim uArch:   28  29  30  31  32  33  34
GPGPU-Sim uArch:   35  36  37  38  39  40  41
GPGPU-Sim uArch:   42  43  44  45  46  47  48
GPGPU-Sim uArch:   49
GPGPU-Sim uArch: interconnect node reverse map (icntID to shaderID+MemID)
GPGPU-Sim uArch: Memory nodes start from ID: 28
GPGPU-Sim uArch:    0   1   2   3   4   5   6
GPGPU-Sim uArch:    7   8   9  10  11  12  13
GPGPU-Sim uArch:   14  15  16  17  18  19  20
GPGPU-Sim uArch:   21  22  23  24  25  26  27
GPGPU-Sim uArch:   28  29  30  31  32  33  34
GPGPU-Sim uArch:   35  36  37  38  39  40  41
GPGPU-Sim uArch:   42  43  44  45  46  47  48
GPGPU-Sim uArch:   49
503228a84c5acce04febe5a767a6866d  /root/gpgpu-sim_UVMSmart/benchmarks/Managed/hotspot/hotspot
GPGPU-Sim uArch: performance model initialization complete.
GPGPU-Sim PTX: __cudaRegisterFatBinary, fat_cubin_handle = 1, filename=default
self exe links to: /root/gpgpu-sim_UVMSmart/benchmarks/Managed/hotspot/hotspot
Running md5sum using "md5sum /root/gpgpu-sim_UVMSmart/benchmarks/Managed/hotspot/hotspot "
Parsing file _cuobjdump_complete_output_0YLES5
######### cuobjdump parser ########
## Adding new section ELF
Adding arch: sm_20
Adding identifier: default
## Adding new section ELF
Adding arch: sm_20
Adding identifier: default
## Adding new section PTX
Adding ptx filename: _cuobjdump_1.ptx
Adding arch: sm_20
Adding identifier: default
Done parsing!!!
GPGPU-Sim PTX: __cudaRegisterFunction _Z14calculate_tempiPfS_S_iiiiffffff : hostFun 0x0x401ae2, fat_cubin_handle = 1
GPGPU-Sim PTX: allocating shared region for "_Z14calculate_tempiPfS_S_iiiiffffff$__cuda_local_var_16165_39_non_const_temp_on_cuda" from 0x0 to 0x400 (shared memory space)
GPGPU-Sim PTX: allocating shared region for "_Z14calculate_tempiPfS_S_iiiiffffff$__cuda_local_var_16166_39_non_const_power_on_cuda" from 0x400 to 0x800 (shared memory space)
GPGPU-Sim PTX: allocating shared region for "_Z14calculate_tempiPfS_S_iiiiffffff$__cuda_local_var_16167_39_non_const_temp_t" from 0x800 to 0xc00 (shared memory space)
GPGPU-Sim PTX: instruction assembly for function '_Z14calculate_tempiPfS_S_iiiiffffff'...   done.
GPGPU-Sim PTX: finding reconvergence points for '_Z14calculate_tempiPfS_S_iiiiffffff'...
GPGPU-Sim PTX: Finding dominators for '_Z14calculate_tempiPfS_S_iiiiffffff'...
GPGPU-Sim PTX: Finding immediate dominators for '_Z14calculate_tempiPfS_S_iiiiffffff'...
GPGPU-Sim PTX: Finding postdominators for '_Z14calculate_tempiPfS_S_iiiiffffff'...
GPGPU-Sim PTX: Finding immediate postdominators for '_Z14calculate_tempiPfS_S_iiiiffffff'...
GPGPU-Sim PTX: pre-decoding instructions for '_Z14calculate_tempiPfS_S_iiiiffffff'...
GPGPU-Sim PTX: reconvergence points for _Z14calculate_tempiPfS_S_iiiiffffff...
GPGPU-Sim PTX:  1 (potential) branch divergence @  PC=0x118 (_1.ptx:82) @!%p7 bra BB0_2;
GPGPU-Sim PTX:    immediate post dominator      @  PC=0x1b8 (_1.ptx:106) bar.sync 0;
GPGPU-Sim PTX:  2 (potential) branch divergence @  PC=0x120 (_1.ptx:83) bra.uni BB0_1;
GPGPU-Sim PTX:    immediate post dominator      @  PC=0x128 (_1.ptx:86) mad.lo.s32 %r27, %r1, %r10, %r2;
GPGPU-Sim PTX:  3 (potential) branch divergence @  PC=0x1c8 (_1.ptx:108) @%p8 bra BB0_11;
GPGPU-Sim PTX:    immediate post dominator      @  PC=0x5b0 (_1.ptx:247) and.b16 %rs7, %rs8, 255;
GPGPU-Sim PTX:  4 (potential) branch divergence @  PC=0x338 (_1.ptx:157) @!%p15 bra BB0_7;
GPGPU-Sim PTX:    immediate post dominator      @  PC=0x538 (_1.ptx:226) bar.sync 0;
GPGPU-Sim PTX:  5 (potential) branch divergence @  PC=0x340 (_1.ptx:158) bra.uni BB0_5;
GPGPU-Sim PTX:    immediate post dominator      @  PC=0x348 (_1.ptx:161) setp.gt.s32%p16, %r23, %r6;
GPGPU-Sim PTX:  6 (potential) branch divergence @  PC=0x3d0 (_1.ptx:178) @%p28 bra BB0_7;
GPGPU-Sim PTX:    immediate post dominator      @  PC=0x538 (_1.ptx:226) bar.sync 0;
GPGPU-Sim PTX:  7 (potential) branch divergence @  PC=0x548 (_1.ptx:228) @%p31 bra BB0_11;
GPGPU-Sim PTX:    immediate post dominator      @  PC=0x5b0 (_1.ptx:247) and.b16 %rs7, %rs8, 255;
GPGPU-Sim PTX:  8 (potential) branch divergence @  PC=0x558 (_1.ptx:231) @%p32 bra BB0_10;
GPGPU-Sim PTX:    immediate post dominator      @  PC=0x590 (_1.ptx:241) bar.sync 0;
GPGPU-Sim PTX:  9 (potential) branch divergence @  PC=0x5a8 (_1.ptx:244) @%p33 bra BB0_4;
GPGPU-Sim PTX:    immediate post dominator      @  PC=0x5b0 (_1.ptx:247) and.b16 %rs7, %rs8, 255;
GPGPU-Sim PTX: 10 (potential) branch divergence @  PC=0x5c0 (_1.ptx:249) @%p34 bra BB0_13;
GPGPU-Sim PTX:    immediate post dominator      @  PC=0x620 (_1.ptx:264) ret;
GPGPU-Sim PTX: ... end of reconvergence points for _Z14calculate_tempiPfS_S_iiiiffffff
GPGPU-Sim PTX: ... done pre-decoding instructions for '_Z14calculate_tempiPfS_S_iiiiffffff'.
GPGPU-Sim PTX: finished parsing EMBEDDED .ptx file _1.ptx
Adding _cuobjdump_1.ptx with cubin handle 1
GPGPU-Sim PTX: extracting embedded .ptx to temporary file "_ptx_lBIwqJ"
Running: cat _ptx_lBIwqJ | sed 's/.version 1.5/.version 1.4/' | sed 's/, texmode_independent//' | sed 's/\(\.extern \.const\[1\] .b8 \w\+\)\[\]/\1\[1\]/' | sed 's/const\[.\]/const\[0\]/g' > _ptx2_ASKpYm
GPGPU-Sim PTX: generating ptxinfo using "$CUDA_INSTALL_PATH/bin/ptxas --gpu-name=sm_20 -v _ptx2_ASKpYm --output-file  /dev/null 2> _ptx_lBIwqJinfo"
GPGPU-Sim PTX: Kernel '_Z14calculate_tempiPfS_S_iiiiffffff' : regs=34, lmem=0, smem=3072, cmem=120
GPGPU-Sim PTX: removing ptxinfo using "rm -f _ptx_lBIwqJ _ptx2_ASKpYm _ptx_lBIwqJinfo"
GPGPU-Sim PTX: loading globals with explicit initializers... 
GPGPU-Sim PTX: finished loading globals (0 bytes total).
GPGPU-Sim PTX: loading constants with explicit initializers...  done.
WG size of kernel = 16 X 16
pyramidHeight: 2
gridSize: [1024, 1024]
border:[2, 2]
blockGrid:[86, 86]
targetBlock:[12, 12]
Start computing the transient temperature

GPGPU-Sim PTX: cudaLaunch for 0x0x401ae2 (mode=performance simulation) on stream 0
GPGPU-Sim PTX: pushing kernel '_Z14calculate_tempiPfS_S_iiiiffffff' to stream 0, gridDim= (86,86,1) blockDim = (16,16,1) 
GPGPU-Sim uArch: Shader 1 bind to kernel 1 '_Z14calculate_tempiPfS_S_iiiiffffff'
GPGPU-Sim uArch: CTA/core = 7, limited by: regs
GPGPU-Sim uArch: Shader 2 bind to kernel 1 '_Z14calculate_tempiPfS_S_iiiiffffff'
GPGPU-Sim uArch: Shader 3 bind to kernel 1 '_Z14calculate_tempiPfS_S_iiiiffffff'
GPGPU-Sim uArch: Shader 4 bind to kernel 1 '_Z14calculate_tempiPfS_S_iiiiffffff'
GPGPU-Sim uArch: Shader 5 bind to kernel 1 '_Z14calculate_tempiPfS_S_iiiiffffff'
GPGPU-Sim uArch: Shader 6 bind to kernel 1 '_Z14calculate_tempiPfS_S_iiiiffffff'
GPGPU-Sim uArch: Shader 7 bind to kernel 1 '_Z14calculate_tempiPfS_S_iiiiffffff'
GPGPU-Sim uArch: Shader 8 bind to kernel 1 '_Z14calculate_tempiPfS_S_iiiiffffff'
GPGPU-Sim uArch: Shader 9 bind to kernel 1 '_Z14calculate_tempiPfS_S_iiiiffffff'
GPGPU-Sim uArch: Shader 10 bind to kernel 1 '_Z14calculate_tempiPfS_S_iiiiffffff'
GPGPU-Sim uArch: Shader 11 bind to kernel 1 '_Z14calculate_tempiPfS_S_iiiiffffff'
GPGPU-Sim uArch: Shader 12 bind to kernel 1 '_Z14calculate_tempiPfS_S_iiiiffffff'
GPGPU-Sim uArch: Shader 13 bind to kernel 1 '_Z14calculate_tempiPfS_S_iiiiffffff'
GPGPU-Sim uArch: Shader 14 bind to kernel 1 '_Z14calculate_tempiPfS_S_iiiiffffff'
GPGPU-Sim uArch: Shader 15 bind to kernel 1 '_Z14calculate_tempiPfS_S_iiiiffffff'
GPGPU-Sim uArch: Shader 16 bind to kernel 1 '_Z14calculate_tempiPfS_S_iiiiffffff'
GPGPU-Sim uArch: Shader 17 bind to kernel 1 '_Z14calculate_tempiPfS_S_iiiiffffff'
GPGPU-Sim uArch: Shader 18 bind to kernel 1 '_Z14calculate_tempiPfS_S_iiiiffffff'
GPGPU-Sim uArch: Shader 19 bind to kernel 1 '_Z14calculate_tempiPfS_S_iiiiffffff'
GPGPU-Sim uArch: Shader 20 bind to kernel 1 '_Z14calculate_tempiPfS_S_iiiiffffff'
GPGPU-Sim uArch: Shader 21 bind to kernel 1 '_Z14calculate_tempiPfS_S_iiiiffffff'
GPGPU-Sim uArch: Shader 22 bind to kernel 1 '_Z14calculate_tempiPfS_S_iiiiffffff'
GPGPU-Sim uArch: Shader 23 bind to kernel 1 '_Z14calculate_tempiPfS_S_iiiiffffff'
GPGPU-Sim uArch: Shader 24 bind to kernel 1 '_Z14calculate_tempiPfS_S_iiiiffffff'
GPGPU-Sim uArch: Shader 25 bind to kernel 1 '_Z14calculate_tempiPfS_S_iiiiffffff'
GPGPU-Sim uArch: Shader 26 bind to kernel 1 '_Z14calculate_tempiPfS_S_iiiiffffff'
GPGPU-Sim uArch: Shader 27 bind to kernel 1 '_Z14calculate_tempiPfS_S_iiiiffffff'
GPGPU-Sim uArch: Shader 0 bind to kernel 1 '_Z14calculate_tempiPfS_S_iiiiffffff'
GPGPU-Sim uArch: Shader 1 bind to kernel 1 '_Z14calculate_tempiPfS_S_iiiiffffff'
GPGPU-Sim uArch: Shader 2 bind to kernel 1 '_Z14calculate_tempiPfS_S_iiiiffffff'
GPGPU-Sim uArch: Shader 3 bind to kernel 1 '_Z14calculate_tempiPfS_S_iiiiffffff'
GPGPU-Sim uArch: Shader 4 bind to kernel 1 '_Z14calculate_tempiPfS_S_iiiiffffff'
GPGPU-Sim uArch: Shader 7 bind to kernel 1 '_Z14calculate_tempiPfS_S_iiiiffffff'
GPGPU-Sim uArch: Shader 13 bind to kernel 1 '_Z14calculate_tempiPfS_S_iiiiffffff'
GPGPU-Sim uArch: Shader 15 bind to kernel 1 '_Z14calculate_tempiPfS_S_iiiiffffff'
GPGPU-Sim uArch: Shader 17 bind to kernel 1 '_Z14calculate_tempiPfS_S_iiiiffffff'
GPGPU-Sim uArch: Shader 18 bind to kernel 1 '_Z14calculate_tempiPfS_S_iiiiffffff'
GPGPU-Sim uArch: Shader 21 bind to kernel 1 '_Z14calculate_tempiPfS_S_iiiiffffff'
GPGPU-Sim uArch: Shader 24 bind to kernel 1 '_Z14calculate_tempiPfS_S_iiiiffffff'
GPGPU-Sim uArch: Shader 25 bind to kernel 1 '_Z14calculate_tempiPfS_S_iiiiffffff'
GPGPU-Sim uArch: Shader 27 bind to kernel 1 '_Z14calculate_tempiPfS_S_iiiiffffff'
GPGPU-Sim uArch: Shader 0 bind to kernel 1 '_Z14calculate_tempiPfS_S_iiiiffffff'
GPGPU-Sim uArch: Shader 14 bind to kernel 1 '_Z14calculate_tempiPfS_S_iiiiffffff'
GPGPU-Sim uArch: Shader 15 bind to kernel 1 '_Z14calculate_tempiPfS_S_iiiiffffff'
GPGPU-Sim uArch: Shader 18 bind to kernel 1 '_Z14calculate_tempiPfS_S_iiiiffffff'
GPGPU-Sim uArch: Shader 22 bind to kernel 1 '_Z14calculate_tempiPfS_S_iiiiffffff'
GPGPU-Sim uArch: Shader 23 bind to kernel 1 '_Z14calculate_tempiPfS_S_iiiiffffff'
GPGPU-Sim uArch: Shader 27 bind to kernel 1 '_Z14calculate_tempiPfS_S_iiiiffffff'
GPGPU-Sim uArch: Shader 4 bind to kernel 1 '_Z14calculate_tempiPfS_S_iiiiffffff'
GPGPU-Sim uArch: Shader 8 bind to kernel 1 '_Z14calculate_tempiPfS_S_iiiiffffff'
GPGPU-Sim uArch: Shader 11 bind to kernel 1 '_Z14calculate_tempiPfS_S_iiiiffffff'
GPGPU-Sim uArch: Shader 12 bind to kernel 1 '_Z14calculate_tempiPfS_S_iiiiffffff'
GPGPU-Sim uArch: Shader 13 bind to kernel 1 '_Z14calculate_tempiPfS_S_iiiiffffff'
GPGPU-Sim uArch: Shader 15 bind to kernel 1 '_Z14calculate_tempiPfS_S_iiiiffffff'
GPGPU-Sim uArch: Shader 20 bind to kernel 1 '_Z14calculate_tempiPfS_S_iiiiffffff'
GPGPU-Sim uArch: Shader 24 bind to kernel 1 '_Z14calculate_tempiPfS_S_iiiiffffff'
GPGPU-Sim uArch: Shader 4 bind to kernel 1 '_Z14calculate_tempiPfS_S_iiiiffffff'
GPGPU-Sim uArch: Shader 6 bind to kernel 1 '_Z14calculate_tempiPfS_S_iiiiffffff'
GPGPU-Sim uArch: Shader 12 bind to kernel 1 '_Z14calculate_tempiPfS_S_iiiiffffff'
GPGPU-Sim uArch: Shader 13 bind to kernel 1 '_Z14calculate_tempiPfS_S_iiiiffffff'
GPGPU-Sim uArch: Shader 22 bind to kernel 1 '_Z14calculate_tempiPfS_S_iiiiffffff'
GPGPU-Sim uArch: Shader 24 bind to kernel 1 '_Z14calculate_tempiPfS_S_iiiiffffff'
GPGPU-Sim uArch: Shader 9 bind to kernel 1 '_Z14calculate_tempiPfS_S_iiiiffffff'
GPGPU-Sim uArch: Shader 10 bind to kernel 1 '_Z14calculate_tempiPfS_S_iiiiffffff'
GPGPU-Sim uArch: Shader 11 bind to kernel 1 '_Z14calculate_tempiPfS_S_iiiiffffff'
GPGPU-Sim uArch: Shader 12 bind to kernel 1 '_Z14calculate_tempiPfS_S_iiiiffffff'
GPGPU-Sim uArch: Shader 13 bind to kernel 1 '_Z14calculate_tempiPfS_S_iiiiffffff'
GPGPU-Sim uArch: Shader 15 bind to kernel 1 '_Z14calculate_tempiPfS_S_iiiiffffff'
GPGPU-Sim uArch: Shader 16 bind to kernel 1 '_Z14calculate_tempiPfS_S_iiiiffffff'
GPGPU-Sim uArch: Shader 18 bind to kernel 1 '_Z14calculate_tempiPfS_S_iiiiffffff'
GPGPU-Sim uArch: Shader 19 bind to kernel 1 '_Z14calculate_tempiPfS_S_iiiiffffff'
GPGPU-Sim uArch: Shader 20 bind to kernel 1 '_Z14calculate_tempiPfS_S_iiiiffffff'
GPGPU-Sim uArch: Shader 22 bind to kernel 1 '_Z14calculate_tempiPfS_S_iiiiffffff'
GPGPU-Sim uArch: Shader 24 bind to kernel 1 '_Z14calculate_tempiPfS_S_iiiiffffff'
GPGPU-Sim uArch: Shader 26 bind to kernel 1 '_Z14calculate_tempiPfS_S_iiiiffffff'
GPGPU-Sim uArch: Shader 27 bind to kernel 1 '_Z14calculate_tempiPfS_S_iiiiffffff'
GPGPU-Sim uArch: Shader 0 bind to kernel 1 '_Z14calculate_tempiPfS_S_iiiiffffff'
GPGPU-Sim uArch: Shader 1 bind to kernel 1 '_Z14calculate_tempiPfS_S_iiiiffffff'
GPGPU-Sim uArch: Shader 4 bind to kernel 1 '_Z14calculate_tempiPfS_S_iiiiffffff'
GPGPU-Sim uArch: Shader 6 bind to kernel 1 '_Z14calculate_tempiPfS_S_iiiiffffff'
GPGPU-Sim uArch: Shader 7 bind to kernel 1 '_Z14calculate_tempiPfS_S_iiiiffffff'
GPGPU-Sim uArch: Shader 9 bind to kernel 1 '_Z14calculate_tempiPfS_S_iiiiffffff'
GPGPU-Sim uArch: Shader 14 bind to kernel 1 '_Z14calculate_tempiPfS_S_iiiiffffff'
GPGPU-Sim uArch: Shader 17 bind to kernel 1 '_Z14calculate_tempiPfS_S_iiiiffffff'
GPGPU-Sim uArch: Shader 21 bind to kernel 1 '_Z14calculate_tempiPfS_S_iiiiffffff'
GPGPU-Sim uArch: Shader 23 bind to kernel 1 '_Z14calculate_tempiPfS_S_iiiiffffff'
GPGPU-Sim uArch: Shader 25 bind to kernel 1 '_Z14calculate_tempiPfS_S_iiiiffffff'
GPGPU-Sim uArch: Shader 3 bind to kernel 1 '_Z14calculate_tempiPfS_S_iiiiffffff'
GPGPU-Sim uArch: Shader 5 bind to kernel 1 '_Z14calculate_tempiPfS_S_iiiiffffff'
GPGPU-Sim uArch: Shader 7 bind to kernel 1 '_Z14calculate_tempiPfS_S_iiiiffffff'
GPGPU-Sim uArch: Shader 22 bind to kernel 1 '_Z14calculate_tempiPfS_S_iiiiffffff'
GPGPU-Sim uArch: Shader 27 bind to kernel 1 '_Z14calculate_tempiPfS_S_iiiiffffff'
GPGPU-Sim uArch: Shader 4 bind to kernel 1 '_Z14calculate_tempiPfS_S_iiiiffffff'
GPGPU-Sim uArch: Shader 5 bind to kernel 1 '_Z14calculate_tempiPfS_S_iiiiffffff'
GPGPU-Sim uArch: Shader 6 bind to kernel 1 '_Z14calculate_tempiPfS_S_iiiiffffff'
GPGPU-Sim uArch: Shader 7 bind to kernel 1 '_Z14calculate_tempiPfS_S_iiiiffffff'
GPGPU-Sim uArch: Shader 8 bind to kernel 1 '_Z14calculate_tempiPfS_S_iiiiffffff'
GPGPU-Sim uArch: Shader 9 bind to kernel 1 '_Z14calculate_tempiPfS_S_iiiiffffff'
GPGPU-Sim uArch: Shader 10 bind to kernel 1 '_Z14calculate_tempiPfS_S_iiiiffffff'
GPGPU-Sim uArch: Shader 11 bind to kernel 1 '_Z14calculate_tempiPfS_S_iiiiffffff'
GPGPU-Sim uArch: Shader 12 bind to kernel 1 '_Z14calculate_tempiPfS_S_iiiiffffff'
GPGPU-Sim uArch: Shader 13 bind to kernel 1 '_Z14calculate_tempiPfS_S_iiiiffffff'
GPGPU-Sim uArch: Shader 14 bind to kernel 1 '_Z14calculate_tempiPfS_S_iiiiffffff'
GPGPU-Sim uArch: Shader 15 bind to kernel 1 '_Z14calculate_tempiPfS_S_iiiiffffff'
GPGPU-Sim uArch: Shader 16 bind to kernel 1 '_Z14calculate_tempiPfS_S_iiiiffffff'
GPGPU-Sim uArch: Shader 17 bind to kernel 1 '_Z14calculate_tempiPfS_S_iiiiffffff'
GPGPU-Sim uArch: Shader 18 bind to kernel 1 '_Z14calculate_tempiPfS_S_iiiiffffff'
GPGPU-Sim uArch: Shader 19 bind to kernel 1 '_Z14calculate_tempiPfS_S_iiiiffffff'
GPGPU-Sim uArch: Shader 20 bind to kernel 1 '_Z14calculate_tempiPfS_S_iiiiffffff'
GPGPU-Sim uArch: Shader 21 bind to kernel 1 '_Z14calculate_tempiPfS_S_iiiiffffff'
GPGPU-Sim uArch: Shader 22 bind to kernel 1 '_Z14calculate_tempiPfS_S_iiiiffffff'
GPGPU-Sim uArch: Shader 23 bind to kernel 1 '_Z14calculate_tempiPfS_S_iiiiffffff'
GPGPU-Sim uArch: Shader 24 bind to kernel 1 '_Z14calculate_tempiPfS_S_iiiiffffff'
GPGPU-Sim uArch: Shader 25 bind to kernel 1 '_Z14calculate_tempiPfS_S_iiiiffffff'
GPGPU-Sim uArch: Shader 26 bind to kernel 1 '_Z14calculate_tempiPfS_S_iiiiffffff'
GPGPU-Sim uArch: Shader 27 bind to kernel 1 '_Z14calculate_tempiPfS_S_iiiiffffff'
GPGPU-Sim uArch: Shader 0 bind to kernel 1 '_Z14calculate_tempiPfS_S_iiiiffffff'
GPGPU-Sim uArch: Shader 1 bind to kernel 1 '_Z14calculate_tempiPfS_S_iiiiffffff'
GPGPU-Sim uArch: Shader 2 bind to kernel 1 '_Z14calculate_tempiPfS_S_iiiiffffff'
GPGPU-Sim uArch: Shader 3 bind to kernel 1 '_Z14calculate_tempiPfS_S_iiiiffffff'
Destroy streams for kernel 1: size 0
kernel_name = _Z14calculate_tempiPfS_S_iiiiffffff 
kernel_launch_uid = 1 
gpu_sim_cycle = 1914805
gpu_sim_insn = 415466464
gpu_ipc =     216.9759
gpu_tot_sim_cycle = 2136955
gpu_tot_sim_insn = 415466464
gpu_tot_ipc =     194.4198
gpu_tot_issued_cta = 7396
max_total_param_size = 0
gpu_stall_dramfull = 54143
gpu_stall_icnt2sh    = 531081
partiton_reqs_in_parallel = 42071567
partiton_reqs_in_parallel_total    = 0
partiton_level_parallism =      21.9717
partiton_level_parallism_total  =      19.6876
partiton_reqs_in_parallel_util = 42071567
partiton_reqs_in_parallel_util_total    = 0
gpu_sim_cycle_parition_util = 1913971
gpu_tot_sim_cycle_parition_util    = 0
partiton_level_parallism_util =      21.9813
partiton_level_parallism_util_total  =      21.9813
partiton_replys_in_parallel = 456444
partiton_replys_in_parallel_total    = 0
L2_BW  =      22.5943 GB/Sec
L2_BW_total  =      20.2454 GB/Sec
gpu_total_sim_rate=150531

========= Core cache stats =========
L1I_cache:
	L1I_total_cache_accesses = 7740000
	L1I_total_cache_misses = 8688
	L1I_total_cache_miss_rate = 0.0011
	L1I_total_cache_pending_hits = 0
	L1I_total_cache_reservation_fails = 6846
L1D_cache:
	L1D_cache_core[0]: Access = 0, Miss = 0, Miss_rate = -nan, Pending_hits = 0, Reservation_fails = 0
	L1D_cache_core[1]: Access = 0, Miss = 0, Miss_rate = -nan, Pending_hits = 0, Reservation_fails = 0
	L1D_cache_core[2]: Access = 0, Miss = 0, Miss_rate = -nan, Pending_hits = 0, Reservation_fails = 0
	L1D_cache_core[3]: Access = 0, Miss = 0, Miss_rate = -nan, Pending_hits = 0, Reservation_fails = 0
	L1D_cache_core[4]: Access = 0, Miss = 0, Miss_rate = -nan, Pending_hits = 0, Reservation_fails = 0
	L1D_cache_core[5]: Access = 0, Miss = 0, Miss_rate = -nan, Pending_hits = 0, Reservation_fails = 0
	L1D_cache_core[6]: Access = 0, Miss = 0, Miss_rate = -nan, Pending_hits = 0, Reservation_fails = 0
	L1D_cache_core[7]: Access = 0, Miss = 0, Miss_rate = -nan, Pending_hits = 0, Reservation_fails = 0
	L1D_cache_core[8]: Access = 0, Miss = 0, Miss_rate = -nan, Pending_hits = 0, Reservation_fails = 0
	L1D_cache_core[9]: Access = 0, Miss = 0, Miss_rate = -nan, Pending_hits = 0, Reservation_fails = 0
	L1D_cache_core[10]: Access = 0, Miss = 0, Miss_rate = -nan, Pending_hits = 0, Reservation_fails = 0
	L1D_cache_core[11]: Access = 0, Miss = 0, Miss_rate = -nan, Pending_hits = 0, Reservation_fails = 0
	L1D_cache_core[12]: Access = 0, Miss = 0, Miss_rate = -nan, Pending_hits = 0, Reservation_fails = 0
	L1D_cache_core[13]: Access = 0, Miss = 0, Miss_rate = -nan, Pending_hits = 0, Reservation_fails = 0
	L1D_cache_core[14]: Access = 0, Miss = 0, Miss_rate = -nan, Pending_hits = 0, Reservation_fails = 0
	L1D_cache_core[15]: Access = 0, Miss = 0, Miss_rate = -nan, Pending_hits = 0, Reservation_fails = 0
	L1D_cache_core[16]: Access = 0, Miss = 0, Miss_rate = -nan, Pending_hits = 0, Reservation_fails = 0
	L1D_cache_core[17]: Access = 0, Miss = 0, Miss_rate = -nan, Pending_hits = 0, Reservation_fails = 0
	L1D_cache_core[18]: Access = 0, Miss = 0, Miss_rate = -nan, Pending_hits = 0, Reservation_fails = 0
	L1D_cache_core[19]: Access = 0, Miss = 0, Miss_rate = -nan, Pending_hits = 0, Reservation_fails = 0
	L1D_cache_core[20]: Access = 0, Miss = 0, Miss_rate = -nan, Pending_hits = 0, Reservation_fails = 0
	L1D_cache_core[21]: Access = 0, Miss = 0, Miss_rate = -nan, Pending_hits = 0, Reservation_fails = 0
	L1D_cache_core[22]: Access = 0, Miss = 0, Miss_rate = -nan, Pending_hits = 0, Reservation_fails = 0
	L1D_cache_core[23]: Access = 0, Miss = 0, Miss_rate = -nan, Pending_hits = 0, Reservation_fails = 0
	L1D_cache_core[24]: Access = 0, Miss = 0, Miss_rate = -nan, Pending_hits = 0, Reservation_fails = 0
	L1D_cache_core[25]: Access = 0, Miss = 0, Miss_rate = -nan, Pending_hits = 0, Reservation_fails = 0
	L1D_cache_core[26]: Access = 0, Miss = 0, Miss_rate = -nan, Pending_hits = 0, Reservation_fails = 0
	L1D_cache_core[27]: Access = 0, Miss = 0, Miss_rate = -nan, Pending_hits = 0, Reservation_fails = 0
	L1D_total_cache_accesses = 0
	L1D_total_cache_misses = 0
	L1D_total_cache_pending_hits = 0
	L1D_total_cache_reservation_fails = 0
	L1D_cache_data_port_util = 0.000
	L1D_cache_fill_port_util = 0.000
L1C_cache:
	L1C_total_cache_accesses = 769184
	L1C_total_cache_misses = 2195
	L1C_total_cache_miss_rate = 0.0029
	L1C_total_cache_pending_hits = 0
	L1C_total_cache_reservation_fails = 4886
L1T_cache:
	L1T_total_cache_accesses = 0
	L1T_total_cache_misses = 0
	L1T_total_cache_pending_hits = 0
	L1T_total_cache_reservation_fails = 0

Total_core_cache_stats:
	Total_core_cache_stats_breakdown[GLOBAL_ACC_R][HIT] = 0
	Total_core_cache_stats_breakdown[GLOBAL_ACC_R][HIT_RESERVED] = 0
	Total_core_cache_stats_breakdown[GLOBAL_ACC_R][MISS] = 0
	Total_core_cache_stats_breakdown[GLOBAL_ACC_R][RESERVATION_FAIL] = 0
	Total_core_cache_stats_breakdown[LOCAL_ACC_R][HIT] = 0
	Total_core_cache_stats_breakdown[LOCAL_ACC_R][HIT_RESERVED] = 0
	Total_core_cache_stats_breakdown[LOCAL_ACC_R][MISS] = 0
	Total_core_cache_stats_breakdown[LOCAL_ACC_R][RESERVATION_FAIL] = 0
	Total_core_cache_stats_breakdown[CONST_ACC_R][HIT] = 766989
	Total_core_cache_stats_breakdown[CONST_ACC_R][HIT_RESERVED] = 0
	Total_core_cache_stats_breakdown[CONST_ACC_R][MISS] = 2195
	Total_core_cache_stats_breakdown[CONST_ACC_R][RESERVATION_FAIL] = 4886
	Total_core_cache_stats_breakdown[TEXTURE_ACC_R][HIT] = 0
	Total_core_cache_stats_breakdown[TEXTURE_ACC_R][HIT_RESERVED] = 0
	Total_core_cache_stats_breakdown[TEXTURE_ACC_R][MISS] = 0
	Total_core_cache_stats_breakdown[TEXTURE_ACC_R][RESERVATION_FAIL] = 0
	Total_core_cache_stats_breakdown[GLOBAL_ACC_W][HIT] = 0
	Total_core_cache_stats_breakdown[GLOBAL_ACC_W][HIT_RESERVED] = 0
	Total_core_cache_stats_breakdown[GLOBAL_ACC_W][MISS] = 0
	Total_core_cache_stats_breakdown[GLOBAL_ACC_W][RESERVATION_FAIL] = 0
	Total_core_cache_stats_breakdown[LOCAL_ACC_W][HIT] = 0
	Total_core_cache_stats_breakdown[LOCAL_ACC_W][HIT_RESERVED] = 0
	Total_core_cache_stats_breakdown[LOCAL_ACC_W][MISS] = 0
	Total_core_cache_stats_breakdown[LOCAL_ACC_W][RESERVATION_FAIL] = 0
	Total_core_cache_stats_breakdown[L1_WRBK_ACC][HIT] = 0
	Total_core_cache_stats_breakdown[L1_WRBK_ACC][HIT_RESERVED] = 0
	Total_core_cache_stats_breakdown[L1_WRBK_ACC][MISS] = 0
	Total_core_cache_stats_breakdown[L1_WRBK_ACC][RESERVATION_FAIL] = 0
	Total_core_cache_stats_breakdown[L2_WRBK_ACC][HIT] = 0
	Total_core_cache_stats_breakdown[L2_WRBK_ACC][HIT_RESERVED] = 0
	Total_core_cache_stats_breakdown[L2_WRBK_ACC][MISS] = 0
	Total_core_cache_stats_breakdown[L2_WRBK_ACC][RESERVATION_FAIL] = 0
	Total_core_cache_stats_breakdown[INST_ACC_R][HIT] = 7731312
	Total_core_cache_stats_breakdown[INST_ACC_R][HIT_RESERVED] = 0
	Total_core_cache_stats_breakdown[INST_ACC_R][MISS] = 8688
	Total_core_cache_stats_breakdown[INST_ACC_R][RESERVATION_FAIL] = 6846
	Total_core_cache_stats_breakdown[L1_WR_ALLOC_R][HIT] = 0
	Total_core_cache_stats_breakdown[L1_WR_ALLOC_R][HIT_RESERVED] = 0
	Total_core_cache_stats_breakdown[L1_WR_ALLOC_R][MISS] = 0
	Total_core_cache_stats_breakdown[L1_WR_ALLOC_R][RESERVATION_FAIL] = 0
	Total_core_cache_stats_breakdown[L2_WR_ALLOC_R][HIT] = 0
	Total_core_cache_stats_breakdown[L2_WR_ALLOC_R][HIT_RESERVED] = 0
	Total_core_cache_stats_breakdown[L2_WR_ALLOC_R][MISS] = 0
	Total_core_cache_stats_breakdown[L2_WR_ALLOC_R][RESERVATION_FAIL] = 0
	Total_core_cache_stats_breakdown[CONST_ACC_R][TOTAL_ACCESS] = 769184
	Total_core_cache_stats_breakdown[INST_ACC_R][TOTAL_ACCESS] = 7740000
Shader 0 warp_id issue ditsribution:
warp_id:
0, 1, 2, 3, 4, 5, 6, 7, 8, 9, 10, 11, 12, 13, 14, 15, 16, 17, 18, 19, 20, 21, 22, 23, 24, 25, 26, 27, 28, 29, 30, 31, 32, 33, 34, 35, 36, 37, 38, 39, 40, 41, 42, 43, 44, 45, 46, 47, 48, 49, 50, 51, 52, 53, 54, 55, 
distro:
9982, 12590, 12613, 12422, 12468, 12423, 12460, 10007, 9727, 12271, 12296, 12113, 12152, 12105, 12148, 9749, 9481, 11961, 11990, 11801, 11841, 11799, 11836, 9500, 9306, 11640, 11657, 11488, 11508, 11484, 11511, 9253, 9551, 11946, 11976, 11797, 11830, 11787, 11829, 9486, 9309, 11621, 11660, 11479, 11519, 11477, 11513, 9245, 9304, 11631, 11659, 11475, 11511, 11464, 11512, 9246, 
gpgpu_n_tot_thrd_icount = 485326208
gpgpu_n_tot_w_icount = 15166444
gpgpu_n_stall_shd_mem = 394927
gpgpu_n_mem_read_local = 0
gpgpu_n_mem_write_local = 0
gpgpu_n_mem_read_global = 346456
gpgpu_n_mem_write_global = 109568
gpgpu_n_mem_texture = 0
gpgpu_n_mem_const = 56
gpgpu_n_load_insn  = 3720992
gpgpu_n_store_insn = 1048576
gpgpu_n_shmem_insn = 24940324
gpgpu_n_tex_insn = 0
gpgpu_n_const_mem_insn = 0
gpgpu_n_param_mem_insn = 24613888
gpgpu_n_shmem_bkconflict = 0
gpgpu_n_cache_bkconflict = 0
gpgpu_n_intrawarp_mshr_merge = 0
gpgpu_n_cmem_portconflict = 4886
gpgpu_stall_shd_mem[c_mem][bk_conf] = 4886
gpgpu_stall_shd_mem[c_mem][mshr_rc] = 0
gpgpu_stall_shd_mem[c_mem][icnt_rc] = 0
gpgpu_stall_shd_mem[c_mem][data_port_stall] = 0
gpgpu_stall_shd_mem[t_mem][mshr_rc] = 0
gpgpu_stall_shd_mem[t_mem][icnt_rc] = 0
gpgpu_stall_shd_mem[t_mem][data_port_stall] = 0
gpgpu_stall_shd_mem[s_mem][bk_conf] = 0
gpgpu_stall_shd_mem[gl_mem][bk_conf] = 0
gpgpu_stall_shd_mem[gl_mem][coal_stall] = 321208
gpgpu_stall_shd_mem[gl_mem][data_port_stall] = 0
gpgpu_stall_shd_mem[g_mem_ld][mshr_rc] = 0
gpgpu_stall_shd_mem[g_mem_ld][icnt_rc] = 68833
gpgpu_stall_shd_mem[g_mem_ld][wb_icnt_rc] = 0
gpgpu_stall_shd_mem[g_mem_ld][wb_rsrv_fail] = 0
gpgpu_stall_shd_mem[g_mem_st][mshr_rc] = 0
gpgpu_stall_shd_mem[g_mem_st][icnt_rc] = 0
gpgpu_stall_shd_mem[g_mem_st][wb_icnt_rc] = 0
gpgpu_stall_shd_mem[g_mem_st][wb_rsrv_fail] = 0
gpgpu_stall_shd_mem[l_mem_ld][mshr_rc] = 0
gpgpu_stall_shd_mem[l_mem_ld][icnt_rc] = 0
gpgpu_stall_shd_mem[l_mem_ld][wb_icnt_rc] = 0
gpgpu_stall_shd_mem[l_mem_ld][wb_rsrv_fail] = 0
gpgpu_stall_shd_mem[l_mem_st][mshr_rc] = 0
gpgpu_stall_shd_mem[l_mem_st][icnt_rc] = 0
gpgpu_stall_shd_mem[l_mem_ld][wb_icnt_rc] = 0
gpgpu_stall_shd_mem[l_mem_ld][wb_rsrv_fail] = 0
gpu_reg_bank_conflict_stalls = 0
Warp Occupancy Distribution:
Stall:529472	W0_Idle:52515445	W0_Scoreboard:41414004	W1:0	W2:0	W3:0	W4:0	W5:8500	W6:0	W7:0	W8:28160	W9:0	W10:25600	W11:0	W12:12958	W13:8500	W14:714000	W15:0	W16:0	W17:0	W18:0	W19:0	W20:0	W21:0	W22:0	W23:0	W24:3517792	W25:0	W26:25600	W27:0	W28:3287550	W29:0	W30:0	W31:0	W32:7537784
traffic_breakdown_coretomem[CONST_ACC_R] = 448 {8:56,}
traffic_breakdown_coretomem[GLOBAL_ACC_R] = 2771648 {8:346456,}
traffic_breakdown_coretomem[GLOBAL_ACC_W] = 7856128 {40:44032,72:44032,136:21504,}
traffic_breakdown_coretomem[INST_ACC_R] = 2912 {8:364,}
traffic_breakdown_memtocore[CONST_ACC_R] = 4032 {72:56,}
traffic_breakdown_memtocore[GLOBAL_ACC_R] = 28785856 {40:114576,72:114576,136:117304,}
traffic_breakdown_memtocore[GLOBAL_ACC_W] = 876544 {8:109568,}
traffic_breakdown_memtocore[INST_ACC_R] = 49504 {136:364,}
maxmrqlatency = 545 
maxdqlatency = 0 
maxmflatency = 243881 
averagemflatency = 4458 
max_icnt2mem_latency = 243557 
max_icnt2sh_latency = 2136954 
mrq_lat_table:112555 	5985 	5871 	12164 	12003 	10656 	9226 	10278 	9854 	21 	0 	0 	0 	0 	0 	0 	0 	0 	0 	0 	0 	0 	0 	0 	0 	0 	0 	0 	0 	0 	0 	0 	
dq_lat_table:0 	0 	0 	0 	0 	0 	0 	0 	0 	0 	0 	0 	0 	0 	0 	0 	0 	0 	0 	0 	0 	0 	0 	0 	0 	0 	0 	0 	0 	0 	0 	0 	
mf_lat_table:0 	0 	0 	0 	0 	0 	0 	283992 	129492 	2620 	237 	2129 	1525 	3645 	7765 	18466 	6162 	47 	0 	0 	0 	0 	0 	0 	0 	0 	0 	0 	0 	0 	0 	0 	
icnt2mem_lat_table:0 	0 	235271 	47421 	4380 	1177 	119866 	8139 	214 	1 	445 	1920 	1529 	3754 	8053 	18065 	6162 	47 	0 	0 	0 	0 	0 	0 	
icnt2sh_lat_table:0 	0 	112333 	148468 	78923 	6710 	78 	0 	0 	0 	0 	0 	0 	0 	0 	0 	0 	0 	12840 	14659 	66197 	15872 	0 	0 	
mf_lat_pw_table:0 	0 	0 	0 	0 	0 	0 	393 	67 	3 	3 	13 	6 	12 	20 	29 	10 	0 	0 	0 	0 	0 	0 	0 	0 	0 	0 	0 	0 	0 	0 	0 	
maximum concurrent accesses to same row:
dram[0]:        69        70        69        70        66        67        69        70        69        70        69        70        68        66        69        70 
dram[1]:        69        70        69        70        66        64        69        70        69        70        69        70        68        65        69        70 
dram[2]:        69        70        69        70        65        65        69        70        69        70        69        70        66        66        69        70 
dram[3]:        69        70        69        70        67        65        69        70        69        70        69        70        64        66        69        70 
dram[4]:        69        70        69        70        65        66        69        70        69        70        69        70        66        65        69        70 
dram[5]:        69        70        69        70        64        66        69        70        69        70        69        70        67        69        69        70 
dram[6]:        69        70        69        70        68        64        69        70        69        70        69        70        69        66        69        70 
dram[7]:        69        70        69        70        65        65        69        70        69        70        69        70        66        66        69        70 
dram[8]:        69        70        69        70        66        64        69        70        69        70        69        70        65        66        69        70 
dram[9]:        69        70        69        70        67        63        69        70        69        70        69        70        64        66        69        70 
dram[10]:        69        70        69        70        64        67        69        70        69        70        69        70        67        66        69        70 
maximum service time to same row:
dram[0]:    254817    255043    255011    255263    256635    256501    383132    382868    377430    377334    376792    254514    249421    249396    248351    248426 
dram[1]:    254864    255199    255213    255270    375898    375696    382867    382868    377548    377494    254788    255000    249370    249380    248362    248195 
dram[2]:    254945    255280    377417    377381    375057    375024    382809    382836    377556    377419    254982    254983    249389    249509    248288    247786 
dram[3]:    254975    254926    377383    377295    256386    256693    382830    382778    377310    377428    255017    254930    249389    249402    248711    248900 
dram[4]:    254950    255089    377250    377590    256542    256699    383038    382870    377542    377553    254962    254760    249419    249384    248839    248937 
dram[5]:    254817    255044    255108    255173    256636    256483    382865    382844    377452    377398    254648    254722    249419    249395    248507    248571 
dram[6]:    254865    255199    255099    255125    375899    375544    383231    382882    377430    377400    376319    254963    249369    249382    248506    248340 
dram[7]:    253463    255282    377376    377250    375673    375674    382790    382849    377446    377268    255062    255001    249395    249487    248280    247779 
dram[8]:    254962    254968    377227    377157    256532    256576    382863    382787    377329    377370    255031    254961    249373    249404    248853    248993 
dram[9]:    254947    254935    377235    377575    256425    256563    383040    382863    377284    377301    255035    254911    249326    249379    248904    248875 
dram[10]:    258064    258225    255108    255171    256823    256448    382836    382872    377262    377270    254965    254751    249371    249376    248777    248903 
average row accesses per activate:
dram[0]: 11.260870 10.602041  9.392858  9.103448  8.733334  9.464286  9.901786  9.024590  9.669642  9.732142 10.093458  8.827868 10.767676 10.666667 12.181818 10.898990 
dram[1]: 12.258823 11.417583  9.383928  9.961905 10.520000 10.470589 10.317757  9.725664 10.207547 10.358491 10.653465  9.637168 10.539216 11.505377 12.611765 11.343750 
dram[2]: 11.873563 11.417583 10.545455 10.076923 10.086538 10.574258 11.070707 11.663157  9.362069 10.490385 11.846154 10.949495 12.000000 11.457447 13.234568 12.191011 
dram[3]: 12.238095 12.506024 10.019048 10.885417 11.223404 10.480392 11.214286 11.437500 10.377358 11.010000 11.404255 11.505377 11.574468 12.616279 11.526882 11.210526 
dram[4]: 11.031915 10.649485  9.841122  9.813084 10.724490 10.470589 12.155556 11.010000 10.519231 10.528846 10.673267 10.858586 12.717647 12.066667 12.465117 11.542553 
dram[5]:  9.866667  9.682243  9.060345  8.806723  8.565574  8.588710 10.396227  9.657895  9.220339  9.561403  9.589286  9.548673 11.263158 10.820000 10.730000 10.588235 
dram[6]: 11.806818 10.147058 10.734694 10.490000  9.636364  8.891666  9.848214  9.963636  9.711712 10.563107 11.020409 10.323810 11.051546 10.770000 12.418605 11.563829 
dram[7]: 12.223530 12.162790 11.344086 10.693877  9.554545 10.584158 11.204082 12.344444  9.854546 10.185185 12.413794 11.463158 10.828282 10.838384 12.022472 11.912087 
dram[8]: 12.188235 11.730337 10.505051 11.369565 10.590000 10.161904 11.989130 11.265306 10.166667 10.557693 12.181818 11.879121 11.144330 12.112360 11.725275 10.730000 
dram[9]: 12.069767 11.617977  9.518182  9.280702  9.768518  9.907408 11.744680 11.945652 10.813725 10.774509 10.948979 11.000000 11.612904 12.280899 11.393617 10.830000 
dram[10]: 10.915790 11.064516  9.348214  8.949153  9.410714  9.368421 11.468750 10.920000  9.918181  9.396552 10.722773  9.756757 11.922222 11.468085 10.979591 10.514564 
average row locality = 188613/17671 = 10.673590
number of total memory accesses made:
dram[0]:         0         0         0         0         0         0         0         0         0         0         0         0         0         0         0         0 
dram[1]:         0         0         0         0         0         0         0         0         0         0         0         0         0         0         0         0 
dram[2]:         0         0         0         0         0         0         0         0         0         0         0         0         0         0         0         0 
dram[3]:         0         0         0         0         0         0         0         0         0         0         0         0         0         0         0         0 
dram[4]:         0         0         0         0         0         0         0         0         0         0         0         0         0         0         0         0 
dram[5]:         0         0         0         0         0         0         0         0         0         0         0         0         0         0         0         0 
dram[6]:         0         0         0         0         0         0         0         0         0         0         0         0         0         0         0         0 
dram[7]:         0         0         0         0         0         0         0         0         0         0         0         0         0         0         0         0 
dram[8]:         0         0         0         0         0         0         0         0         0         0         0         0         0         0         0         0 
dram[9]:         0         0         0         0         0         0         0         0         0         0         0         0         0         0         0         0 
dram[10]:         0         0         0         0         0         0         0         0         0         0         0         0         0         0         0         0 
total accesses: 0
min_bank_accesses = 0!
min_chip_accesses = 0!
number of total read accesses:
dram[0]:       561       560       560       560       560       560       560       560       560       560       548       548       560       560       560       560 
dram[1]:       560       560       560       560       560       560       560       560       560       560       549       549       560       560       560       560 
dram[2]:       560       560       560       560       560       560       560       560       560       560       549       549       560       560       560       560 
dram[3]:       560       560       560       560       560       560       560       560       560       560       549       549       560       560       560       560 
dram[4]:       560       560       560       560       560       560       560       560       560       560       549       549       560       560       561       561 
dram[5]:       560       560       560       560       560       560       560       560       560       560       548       548       560       560       561       561 
dram[6]:       560       560       560       560       560       560       560       560       560       560       548       548       560       560       561       561 
dram[7]:       560       560       560       560       560       560       560       560       560       560       548       548       560       560       561       561 
dram[8]:       560       560       560       560       560       560       560       560       560       560       548       548       560       560       561       561 
dram[9]:       560       560       560       560       560       560       560       560       560       560       548       548       560       560       561       561 
dram[10]:       560       560       560       560       560       560       560       560       560       560       548       548       560       560       561       560 
total reads: 98318
bank skew: 561/548 = 1.02
chip skew: 8940/8937 = 1.00
number of total write accesses:
dram[0]:       475       479       492       496       488       500       549       541       523       530       532       529       506       528       512       519 
dram[1]:       482       479       491       486       492       508       544       539       522       538       527       540       515       510       512       529 
dram[2]:       473       479       484       488       489       508       536       548       526       531       529       535       520       517       512       525 
dram[3]:       468       478       492       485       495       509       539       538       540       541       523       521       528       525       512       505 
dram[4]:       477       473       493       490       491       508       534       541       534       535       529       526       521       526       511       524 
dram[5]:       476       476       491       488       485       505       542       541       528       530       526       531       510       522       512       519 
dram[6]:       479       475       492       489       500       507       543       536       518       528       532       536       512       517       507       526 
dram[7]:       479       486       495       488       491       509       538       551       524       540       532       541       512       513       509       523 
dram[8]:       476       484       480       486       499       507       543       544       538       538       524       533       521       518       506       512 
dram[9]:       478       474       487       498       495       510       544       539       543       539       525       530       520       533       510       522 
dram[10]:       477       469       487       496       494       508       541       532       531       530       535       535       513       518       515       523 
total reads: 90295
bank skew: 551/468 = 1.18
chip skew: 8247/8182 = 1.01
average mf latency per bank:
dram[0]:      11021     10782     14386     14668     17249     17096     12624     12790      6533      6344      8601      8618      6359      6521      9049      8770
dram[1]:      11376     11542     14589     14815     17284     17144     12958     12940      6598      6395      8785      8661      6427      6438      9031      8800
dram[2]:      11317     11387     14844     14985     17066     17214     13170     12899      6381      6002      8822      8716      6632      6640      9026      8847
dram[3]:      11670     11247     14601     14812     17103     16913     12912     12646      6376      6147      8825      8828      6455      6582      9116      8877
dram[4]:      11651     11804     14149     14084     17755     17777     12683     12324      6419      6218      8459      8133      6566      6388      8771      8531
dram[5]:      11967     12081     13906     14133     17968     17833     12264     12265      6663      6530      7888      7867      6638      6769      8556      8395
dram[6]:      11911     11650     14057     14372     17994     17937     12552     12651      6837      6592      8778      8942      6557      6661      8977      8792
dram[7]:      11505     11706     14315     14582     17949     17690     13361     13306      6548      6102      9032      8856      6596      6502      9060      8898
dram[8]:      11675     11430     14595     14700     17255     17313     13344     12960      6128      5862      8639      8517      6471      6547      9162      8979
dram[9]:      11791     11636     14265     14106     16952     16706     12525     12201      6254      6047      8680      8637      6413      6297      9614      9465
dram[10]:      11350     11525     14090     14127     17046     17159     12384     12422      6330      6191      8656      8582      6305      6140      9283      9015
maximum mf latency per bank:
dram[0]:     123720    123715    124459    124184    124157    124372    123758    123719    123046    122891    124040    124039     63791     63784    243814    243834
dram[1]:     123998    124046    124419    124444    124378    124504    123748    123755    122986    123019    124041    124040     63812     63837    243800    243829
dram[2]:     124059    123738    124735    124752    124474    124367    123755    123764    123015    122995    124042    124043     63882     63856    243808    243831
dram[3]:     123719    123630    124747    124673    124353    124372    123760    123737    123069    123072    124042    124037     63828     63797    243807    243881
dram[4]:     123708    123671    124695    124374    124313    124414    123744    123755    123051    123004    124037    124047     63762     63700    243809    123723
dram[5]:     123688    123661    124628    124247    124214    124473    123562    123729    123015    122923    124039    124039     63798     63772    123664    123679
dram[6]:     124099    124106    124281    123939    124374    124506    123731    123756    123043    123003    124041    124053     63809     63734    123689    123720
dram[7]:     124112    123768    124782    124718    124405    124448    123783    124042    122982    123015    124045    124040     63782     63861    123669    123710
dram[8]:     123709    123642    124778    124708    124533    124349    123813    123828    123011    123071    124047    124047     63873     63753    123684    123713
dram[9]:     123719    123685    124723    124465    124404    124306    123724    123734    123050    122978    124042    124051     63746     63778    243764    243774
dram[10]:     123660    123637    124648    124356    124194    124305    123741    123799    123024    122964    124040    124041     63817     63800    243797    243810
Memory Partition 0: 
Cache L2_bank_000:
MSHR contents

Cache L2_bank_001:
MSHR contents

In Dram Latency Queue (total = 0): 
DRAM[0]: 16 bks, busW=4 BL=8 CL=12, tRRD=2 tCCD=6, tRCD=12 tRAS=28 tRP=12 tRC=40
n_cmd=3555511 n_nop=3497065 n_act=1726 n_pre=1710 n_req=17136 n_rd=35748 n_write=19262 bw_util=0.03094
n_activity=200019 dram_eff=0.55
bk0: 2244a 3536206i bk1: 2240a 3534285i bk2: 2240a 3534230i bk3: 2240a 3533157i bk4: 2240a 3534865i bk5: 2240a 3532726i bk6: 2240a 3533483i bk7: 2240a 3532515i bk8: 2240a 3533911i bk9: 2240a 3532977i bk10: 2192a 3533754i bk11: 2192a 3533004i bk12: 2240a 3534954i bk13: 2240a 3533614i bk14: 2240a 3534434i bk15: 2240a 3533159i 
dram_util_bins: 0 0 0 0 0 0 0 0 0 0
dram_eff_bins: 0 0 0 0 0 0 0 0 0 0
mrqq: max=64 avg=0.334345
Memory Partition 1: 
Cache L2_bank_002:
MSHR contents

Cache L2_bank_003:
MSHR contents

In Dram Latency Queue (total = 0): 
DRAM[1]: 16 bks, busW=4 BL=8 CL=12, tRRD=2 tCCD=6, tRCD=12 tRAS=28 tRP=12 tRC=40
n_cmd=3555511 n_nop=3497330 n_act=1617 n_pre=1601 n_req=17152 n_rd=35752 n_write=19211 bw_util=0.03092
n_activity=199373 dram_eff=0.5514
bk0: 2240a 3536360i bk1: 2240a 3534450i bk2: 2240a 3534692i bk3: 2240a 3533540i bk4: 2240a 3534789i bk5: 2240a 3533291i bk6: 2240a 3534278i bk7: 2240a 3533273i bk8: 2240a 3533573i bk9: 2240a 3532996i bk10: 2196a 3534254i bk11: 2196a 3532963i bk12: 2240a 3534939i bk13: 2240a 3534094i bk14: 2240a 3534872i bk15: 2240a 3533225i 
dram_util_bins: 0 0 0 0 0 0 0 0 0 0
dram_eff_bins: 0 0 0 0 0 0 0 0 0 0
mrqq: max=64 avg=0.332137
Memory Partition 2: 
Cache L2_bank_004:
MSHR contents

Cache L2_bank_005:
MSHR contents

In Dram Latency Queue (total = 0): 
DRAM[2]: 16 bks, busW=4 BL=8 CL=12, tRRD=2 tCCD=6, tRCD=12 tRAS=28 tRP=12 tRC=40
n_cmd=3555511 n_nop=3497420 n_act=1544 n_pre=1528 n_req=17138 n_rd=35752 n_write=19267 bw_util=0.03095
n_activity=198928 dram_eff=0.5532
bk0: 2240a 3536604i bk1: 2240a 3534742i bk2: 2240a 3535450i bk3: 2240a 3534197i bk4: 2240a 3534712i bk5: 2240a 3534123i bk6: 2240a 3534556i bk7: 2240a 3533760i bk8: 2240a 3534155i bk9: 2240a 3533469i bk10: 2196a 3534612i bk11: 2196a 3533551i bk12: 2240a 3534477i bk13: 2240a 3533590i bk14: 2240a 3534712i bk15: 2240a 3534145i 
dram_util_bins: 0 0 0 0 0 0 0 0 0 0
dram_eff_bins: 0 0 0 0 0 0 0 0 0 0
mrqq: max=64 avg=0.330936
Memory Partition 3: 
Cache L2_bank_006:
MSHR contents

Cache L2_bank_007:
MSHR contents

In Dram Latency Queue (total = 0): 
DRAM[3]: 16 bks, busW=4 BL=8 CL=12, tRRD=2 tCCD=6, tRCD=12 tRAS=28 tRP=12 tRC=40
n_cmd=3555511 n_nop=3497470 n_act=1519 n_pre=1503 n_req=17137 n_rd=35752 n_write=19267 bw_util=0.03095
n_activity=198912 dram_eff=0.5532
bk0: 2240a 3536522i bk1: 2240a 3535415i bk2: 2240a 3534788i bk3: 2240a 3534413i bk4: 2240a 3535136i bk5: 2240a 3534362i bk6: 2240a 3533589i bk7: 2240a 3533773i bk8: 2240a 3533154i bk9: 2240a 3532854i bk10: 2196a 3534347i bk11: 2196a 3534155i bk12: 2240a 3534294i bk13: 2240a 3534021i bk14: 2240a 3535234i bk15: 2240a 3533980i 
dram_util_bins: 0 0 0 0 0 0 0 0 0 0
dram_eff_bins: 0 0 0 0 0 0 0 0 0 0
mrqq: max=64 avg=0.329775
Memory Partition 4: 
Cache L2_bank_008:
MSHR contents

Cache L2_bank_009:
MSHR contents

In Dram Latency Queue (total = 0): 
DRAM[4]: 16 bks, busW=4 BL=8 CL=12, tRRD=2 tCCD=6, tRCD=12 tRAS=28 tRP=12 tRC=40
n_cmd=3555511 n_nop=3497367 n_act=1558 n_pre=1542 n_req=17153 n_rd=35760 n_write=19284 bw_util=0.03096
n_activity=198950 dram_eff=0.5533
bk0: 2240a 3535360i bk1: 2240a 3533974i bk2: 2240a 3534921i bk3: 2240a 3534059i bk4: 2240a 3535705i bk5: 2240a 3533613i bk6: 2240a 3535083i bk7: 2240a 3533189i bk8: 2240a 3533826i bk9: 2240a 3533118i bk10: 2196a 3533747i bk11: 2196a 3532708i bk12: 2240a 3535213i bk13: 2240a 3534081i bk14: 2244a 3534997i bk15: 2244a 3533446i 
dram_util_bins: 0 0 0 0 0 0 0 0 0 0
dram_eff_bins: 0 0 0 0 0 0 0 0 0 0
mrqq: max=64 avg=0.334054
Memory Partition 5: 
Cache L2_bank_010:
MSHR contents

Cache L2_bank_011:
MSHR contents

In Dram Latency Queue (total = 0): 
DRAM[5]: 16 bks, busW=4 BL=8 CL=12, tRRD=2 tCCD=6, tRCD=12 tRAS=28 tRP=12 tRC=40
n_cmd=3555511 n_nop=3496982 n_act=1767 n_pre=1751 n_req=17120 n_rd=35752 n_write=19259 bw_util=0.03094
n_activity=200622 dram_eff=0.5484
bk0: 2240a 3535400i bk1: 2240a 3534559i bk2: 2240a 3535292i bk3: 2240a 3534138i bk4: 2240a 3534129i bk5: 2240a 3532785i bk6: 2240a 3534173i bk7: 2240a 3533323i bk8: 2240a 3533459i bk9: 2240a 3532558i bk10: 2192a 3534352i bk11: 2192a 3533723i bk12: 2240a 3534810i bk13: 2240a 3532998i bk14: 2244a 3534746i bk15: 2244a 3533669i 
dram_util_bins: 0 0 0 0 0 0 0 0 0 0
dram_eff_bins: 0 0 0 0 0 0 0 0 0 0
mrqq: max=64 avg=0.327321
Memory Partition 6: 
Cache L2_bank_012:
MSHR contents

Cache L2_bank_013:
MSHR contents

In Dram Latency Queue (total = 0): 
DRAM[6]: 16 bks, busW=4 BL=8 CL=12, tRRD=2 tCCD=6, tRCD=12 tRAS=28 tRP=12 tRC=40
n_cmd=3555511 n_nop=3497319 n_act=1634 n_pre=1618 n_req=17135 n_rd=35752 n_write=19188 bw_util=0.0309
n_activity=198984 dram_eff=0.5522
bk0: 2240a 3535928i bk1: 2240a 3535202i bk2: 2240a 3535309i bk3: 2240a 3534344i bk4: 2240a 3534109i bk5: 2240a 3532261i bk6: 2240a 3533737i bk7: 2240a 3533025i bk8: 2240a 3534089i bk9: 2240a 3533340i bk10: 2192a 3534406i bk11: 2192a 3534078i bk12: 2240a 3534749i bk13: 2240a 3533533i bk14: 2244a 3535010i bk15: 2244a 3533662i 
dram_util_bins: 0 0 0 0 0 0 0 0 0 0
dram_eff_bins: 0 0 0 0 0 0 0 0 0 0
mrqq: max=64 avg=0.32982
Memory Partition 7: 
Cache L2_bank_014:
MSHR contents

Cache L2_bank_015:
MSHR contents

In Dram Latency Queue (total = 0): 
DRAM[7]: 16 bks, busW=4 BL=8 CL=12, tRRD=2 tCCD=6, tRCD=12 tRAS=28 tRP=12 tRC=40
n_cmd=3555511 n_nop=3497442 n_act=1539 n_pre=1523 n_req=17169 n_rd=35752 n_write=19255 bw_util=0.03094
n_activity=199043 dram_eff=0.5527
bk0: 2240a 3536882i bk1: 2240a 3535214i bk2: 2240a 3535238i bk3: 2240a 3534302i bk4: 2240a 3534146i bk5: 2240a 3533612i bk6: 2240a 3534166i bk7: 2240a 3533856i bk8: 2240a 3533129i bk9: 2240a 3532936i bk10: 2192a 3534024i bk11: 2192a 3533262i bk12: 2240a 3534847i bk13: 2240a 3533801i bk14: 2244a 3534648i bk15: 2244a 3533783i 
dram_util_bins: 0 0 0 0 0 0 0 0 0 0
dram_eff_bins: 0 0 0 0 0 0 0 0 0 0
mrqq: max=64 avg=0.333734
Memory Partition 8: 
Cache L2_bank_016:
MSHR contents

Cache L2_bank_017:
MSHR contents

In Dram Latency Queue (total = 0): 
DRAM[8]: 16 bks, busW=4 BL=8 CL=12, tRRD=2 tCCD=6, tRCD=12 tRAS=28 tRP=12 tRC=40
n_cmd=3555511 n_nop=3497435 n_act=1528 n_pre=1512 n_req=17147 n_rd=35752 n_write=19284 bw_util=0.03096
n_activity=198977 dram_eff=0.5532
bk0: 2240a 3536718i bk1: 2240a 3534901i bk2: 2240a 3535151i bk3: 2240a 3534656i bk4: 2240a 3535141i bk5: 2240a 3533686i bk6: 2240a 3534443i bk7: 2240a 3533938i bk8: 2240a 3533111i bk9: 2240a 3532648i bk10: 2192a 3534648i bk11: 2192a 3533828i bk12: 2240a 3534558i bk13: 2240a 3534996i bk14: 2244a 3534766i bk15: 2244a 3533887i 
dram_util_bins: 0 0 0 0 0 0 0 0 0 0
dram_eff_bins: 0 0 0 0 0 0 0 0 0 0
mrqq: max=64 avg=0.329775
Memory Partition 9: 
Cache L2_bank_018:
MSHR contents

Cache L2_bank_019:
MSHR contents

In Dram Latency Queue (total = 0): 
DRAM[9]: 16 bks, busW=4 BL=8 CL=12, tRRD=2 tCCD=6, tRCD=12 tRAS=28 tRP=12 tRC=40
n_cmd=3555511 n_nop=3497259 n_act=1577 n_pre=1561 n_req=17185 n_rd=35752 n_write=19362 bw_util=0.031
n_activity=200596 dram_eff=0.5495
bk0: 2240a 3536236i bk1: 2240a 3535776i bk2: 2240a 3535218i bk3: 2240a 3534284i bk4: 2240a 3534963i bk5: 2240a 3533453i bk6: 2240a 3534397i bk7: 2240a 3534082i bk8: 2240a 3533933i bk9: 2240a 3533369i bk10: 2192a 3534632i bk11: 2192a 3532803i bk12: 2240a 3534633i bk13: 2240a 3534548i bk14: 2244a 3534623i bk15: 2244a 3533413i 
dram_util_bins: 0 0 0 0 0 0 0 0 0 0
dram_eff_bins: 0 0 0 0 0 0 0 0 0 0
mrqq: max=64 avg=0.331946
Memory Partition 10: 
Cache L2_bank_020:
MSHR contents

Cache L2_bank_021:
MSHR contents

In Dram Latency Queue (total = 0): 
DRAM[10]: 16 bks, busW=4 BL=8 CL=12, tRRD=2 tCCD=6, tRCD=12 tRAS=28 tRP=12 tRC=40
n_cmd=3555511 n_nop=3497172 n_act=1663 n_pre=1647 n_req=17141 n_rd=35748 n_write=19281 bw_util=0.03095
n_activity=199895 dram_eff=0.5506
bk0: 2240a 3535805i bk1: 2240a 3534322i bk2: 2240a 3535093i bk3: 2240a 3533487i bk4: 2240a 3535074i bk5: 2240a 3532956i bk6: 2240a 3534497i bk7: 2240a 3533172i bk8: 2240a 3533661i bk9: 2240a 3532760i bk10: 2192a 3533684i bk11: 2192a 3533203i bk12: 2240a 3535008i bk13: 2240a 3533593i bk14: 2244a 3534080i bk15: 2240a 3533607i 
dram_util_bins: 0 0 0 0 0 0 0 0 0 0
dram_eff_bins: 0 0 0 0 0 0 0 0 0 0
mrqq: max=64 avg=0.334759

========= L2 cache stats =========
L2_cache_bank[0]: Access = 20620, Miss = 4469, Miss_rate = 0.217, Pending_hits = 7037, Reservation_fails = 4
L2_cache_bank[1]: Access = 20905, Miss = 4468, Miss_rate = 0.214, Pending_hits = 7208, Reservation_fails = 8
L2_cache_bank[2]: Access = 20570, Miss = 4469, Miss_rate = 0.217, Pending_hits = 7047, Reservation_fails = 2
L2_cache_bank[3]: Access = 20910, Miss = 4469, Miss_rate = 0.214, Pending_hits = 7174, Reservation_fails = 6
L2_cache_bank[4]: Access = 20562, Miss = 4469, Miss_rate = 0.217, Pending_hits = 6973, Reservation_fails = 8
L2_cache_bank[5]: Access = 20901, Miss = 4469, Miss_rate = 0.214, Pending_hits = 7201, Reservation_fails = 7
L2_cache_bank[6]: Access = 20556, Miss = 4469, Miss_rate = 0.217, Pending_hits = 7076, Reservation_fails = 6
L2_cache_bank[7]: Access = 20897, Miss = 4469, Miss_rate = 0.214, Pending_hits = 7150, Reservation_fails = 5
L2_cache_bank[8]: Access = 20582, Miss = 4470, Miss_rate = 0.217, Pending_hits = 7060, Reservation_fails = 6
L2_cache_bank[9]: Access = 20926, Miss = 4470, Miss_rate = 0.214, Pending_hits = 7177, Reservation_fails = 3
L2_cache_bank[10]: Access = 20583, Miss = 4469, Miss_rate = 0.217, Pending_hits = 7019, Reservation_fails = 5
L2_cache_bank[11]: Access = 20925, Miss = 4469, Miss_rate = 0.214, Pending_hits = 7222, Reservation_fails = 9
L2_cache_bank[12]: Access = 20590, Miss = 4469, Miss_rate = 0.217, Pending_hits = 7074, Reservation_fails = 7
L2_cache_bank[13]: Access = 20929, Miss = 4469, Miss_rate = 0.214, Pending_hits = 7237, Reservation_fails = 9
L2_cache_bank[14]: Access = 20586, Miss = 4469, Miss_rate = 0.217, Pending_hits = 6982, Reservation_fails = 10
L2_cache_bank[15]: Access = 20925, Miss = 4469, Miss_rate = 0.214, Pending_hits = 7180, Reservation_fails = 7
L2_cache_bank[16]: Access = 20580, Miss = 4469, Miss_rate = 0.217, Pending_hits = 7001, Reservation_fails = 8
L2_cache_bank[17]: Access = 20920, Miss = 4469, Miss_rate = 0.214, Pending_hits = 7242, Reservation_fails = 15
L2_cache_bank[18]: Access = 20578, Miss = 4469, Miss_rate = 0.217, Pending_hits = 7069, Reservation_fails = 8
L2_cache_bank[19]: Access = 20921, Miss = 4469, Miss_rate = 0.214, Pending_hits = 7161, Reservation_fails = 5
L2_cache_bank[20]: Access = 20581, Miss = 4469, Miss_rate = 0.217, Pending_hits = 7056, Reservation_fails = 3
L2_cache_bank[21]: Access = 20897, Miss = 4468, Miss_rate = 0.214, Pending_hits = 7136, Reservation_fails = 9
L2_total_cache_accesses = 456444
L2_total_cache_misses = 98318
L2_total_cache_miss_rate = 0.2154
L2_total_cache_pending_hits = 156482
L2_total_cache_reservation_fails = 150
L2_total_cache_breakdown:
	L2_cache_stats_breakdown[GLOBAL_ACC_R][HIT] = 168551
	L2_cache_stats_breakdown[GLOBAL_ACC_R][HIT_RESERVED] = 112369
	L2_cache_stats_breakdown[GLOBAL_ACC_R][MISS] = 65536
	L2_cache_stats_breakdown[GLOBAL_ACC_R][RESERVATION_FAIL] = 2
	L2_cache_stats_breakdown[LOCAL_ACC_R][HIT] = 0
	L2_cache_stats_breakdown[LOCAL_ACC_R][HIT_RESERVED] = 0
	L2_cache_stats_breakdown[LOCAL_ACC_R][MISS] = 0
	L2_cache_stats_breakdown[LOCAL_ACC_R][RESERVATION_FAIL] = 0
	L2_cache_stats_breakdown[CONST_ACC_R][HIT] = 28
	L2_cache_stats_breakdown[CONST_ACC_R][HIT_RESERVED] = 27
	L2_cache_stats_breakdown[CONST_ACC_R][MISS] = 1
	L2_cache_stats_breakdown[CONST_ACC_R][RESERVATION_FAIL] = 0
	L2_cache_stats_breakdown[TEXTURE_ACC_R][HIT] = 0
	L2_cache_stats_breakdown[TEXTURE_ACC_R][HIT_RESERVED] = 0
	L2_cache_stats_breakdown[TEXTURE_ACC_R][MISS] = 0
	L2_cache_stats_breakdown[TEXTURE_ACC_R][RESERVATION_FAIL] = 0
	L2_cache_stats_breakdown[GLOBAL_ACC_W][HIT] = 33055
	L2_cache_stats_breakdown[GLOBAL_ACC_W][HIT_RESERVED] = 43745
	L2_cache_stats_breakdown[GLOBAL_ACC_W][MISS] = 32768
	L2_cache_stats_breakdown[GLOBAL_ACC_W][RESERVATION_FAIL] = 148
	L2_cache_stats_breakdown[LOCAL_ACC_W][HIT] = 0
	L2_cache_stats_breakdown[LOCAL_ACC_W][HIT_RESERVED] = 0
	L2_cache_stats_breakdown[LOCAL_ACC_W][MISS] = 0
	L2_cache_stats_breakdown[LOCAL_ACC_W][RESERVATION_FAIL] = 0
	L2_cache_stats_breakdown[L1_WRBK_ACC][HIT] = 0
	L2_cache_stats_breakdown[L1_WRBK_ACC][HIT_RESERVED] = 0
	L2_cache_stats_breakdown[L1_WRBK_ACC][MISS] = 0
	L2_cache_stats_breakdown[L1_WRBK_ACC][RESERVATION_FAIL] = 0
	L2_cache_stats_breakdown[L2_WRBK_ACC][HIT] = 0
	L2_cache_stats_breakdown[L2_WRBK_ACC][HIT_RESERVED] = 0
	L2_cache_stats_breakdown[L2_WRBK_ACC][MISS] = 0
	L2_cache_stats_breakdown[L2_WRBK_ACC][RESERVATION_FAIL] = 0
	L2_cache_stats_breakdown[INST_ACC_R][HIT] = 10
	L2_cache_stats_breakdown[INST_ACC_R][HIT_RESERVED] = 341
	L2_cache_stats_breakdown[INST_ACC_R][MISS] = 13
	L2_cache_stats_breakdown[INST_ACC_R][RESERVATION_FAIL] = 0
	L2_cache_stats_breakdown[L1_WR_ALLOC_R][HIT] = 0
	L2_cache_stats_breakdown[L1_WR_ALLOC_R][HIT_RESERVED] = 0
	L2_cache_stats_breakdown[L1_WR_ALLOC_R][MISS] = 0
	L2_cache_stats_breakdown[L1_WR_ALLOC_R][RESERVATION_FAIL] = 0
	L2_cache_stats_breakdown[L2_WR_ALLOC_R][HIT] = 0
	L2_cache_stats_breakdown[L2_WR_ALLOC_R][HIT_RESERVED] = 0
	L2_cache_stats_breakdown[L2_WR_ALLOC_R][MISS] = 0
	L2_cache_stats_breakdown[L2_WR_ALLOC_R][RESERVATION_FAIL] = 0
	L2_cache_stats_breakdown[GLOBAL_ACC_R][TOTAL_ACCESS] = 346456
	L2_cache_stats_breakdown[CONST_ACC_R][TOTAL_ACCESS] = 56
	L2_cache_stats_breakdown[GLOBAL_ACC_W][TOTAL_ACCESS] = 109568
	L2_cache_stats_breakdown[INST_ACC_R][TOTAL_ACCESS] = 364
L2_cache_data_port_util = 0.012
L2_cache_fill_port_util = 0.009

icnt_total_pkts_mem_to_simt=1270956
icnt_total_pkts_simt_to_mem=674556
LD_mem_lat_dist  0 0 0 0 0 0 0 0 0 0 0 0 0 0 0 0 0 0 0 0 0 0 0 0 0 0 0
ST_mem_lat_dist  0 0 0 0 0 0 0 0 0 0 0 0 0 0 0 0 0 0 0 0 0 0 0 0 0 0 0
----------------------------Interconnect-DETAILS--------------------------------
Class 0:
Packet latency average = 16.0899
	minimum = 6
	maximum = 752
Network latency average = 12.8322
	minimum = 6
	maximum = 747
Slowest packet = 534860
Flit latency average = 12.786
	minimum = 6
	maximum = 743
Slowest flit = 1143041
Fragmentation average = 0.00154893
	minimum = 0
	maximum = 658
Injected packet rate average = 0.00476753
	minimum = 0.00409624 (at node 18)
	maximum = 0.00546505 (at node 41)
Accepted packet rate average = 0.00476753
	minimum = 0.00409624 (at node 18)
	maximum = 0.00546505 (at node 41)
Injected flit rate average = 0.0101604
	minimum = 0.00614345 (at node 16)
	maximum = 0.0152078 (at node 37)
Accepted flit rate average= 0.0101604
	minimum = 0.00796766 (at node 34)
	maximum = 0.0121378 (at node 17)
Injected packet length average = 2.13116
Accepted packet length average = 2.13116
Total in-flight flits = 0 (0 measured)
====== Overall Traffic Statistics ======
====== Traffic class 0 ======
Packet latency average = 16.0899 (1 samples)
	minimum = 6 (1 samples)
	maximum = 752 (1 samples)
Network latency average = 12.8322 (1 samples)
	minimum = 6 (1 samples)
	maximum = 747 (1 samples)
Flit latency average = 12.786 (1 samples)
	minimum = 6 (1 samples)
	maximum = 743 (1 samples)
Fragmentation average = 0.00154893 (1 samples)
	minimum = 0 (1 samples)
	maximum = 658 (1 samples)
Injected packet rate average = 0.00476753 (1 samples)
	minimum = 0.00409624 (1 samples)
	maximum = 0.00546505 (1 samples)
Accepted packet rate average = 0.00476753 (1 samples)
	minimum = 0.00409624 (1 samples)
	maximum = 0.00546505 (1 samples)
Injected flit rate average = 0.0101604 (1 samples)
	minimum = 0.00614345 (1 samples)
	maximum = 0.0152078 (1 samples)
Accepted flit rate average = 0.0101604 (1 samples)
	minimum = 0.00796766 (1 samples)
	maximum = 0.0121378 (1 samples)
Injected packet size average = 2.13116 (1 samples)
Accepted packet size average = 2.13116 (1 samples)
Hops average = 1 (1 samples)
----------------------------END-of-Interconnect-DETAILS-------------------------


gpgpu_simulation_time = 0 days, 0 hrs, 46 min, 0 sec (2760 sec)
gpgpu_simulation_rate = 150531 (inst/sec)
gpgpu_simulation_rate = 774 (cycle/sec)

GPGPU-Sim PTX: cudaLaunch for 0x0x401ae2 (mode=performance simulation) on stream 0
GPGPU-Sim PTX: pushing kernel '_Z14calculate_tempiPfS_S_iiiiffffff' to stream 0, gridDim= (86,86,1) blockDim = (16,16,1) 
GPGPU-Sim uArch: Shader 24 bind to kernel 2 '_Z14calculate_tempiPfS_S_iiiiffffff'
GPGPU-Sim uArch: Shader 25 bind to kernel 2 '_Z14calculate_tempiPfS_S_iiiiffffff'
GPGPU-Sim uArch: Shader 26 bind to kernel 2 '_Z14calculate_tempiPfS_S_iiiiffffff'
GPGPU-Sim uArch: Shader 27 bind to kernel 2 '_Z14calculate_tempiPfS_S_iiiiffffff'
GPGPU-Sim uArch: Shader 0 bind to kernel 2 '_Z14calculate_tempiPfS_S_iiiiffffff'
GPGPU-Sim uArch: Shader 1 bind to kernel 2 '_Z14calculate_tempiPfS_S_iiiiffffff'
GPGPU-Sim uArch: Shader 2 bind to kernel 2 '_Z14calculate_tempiPfS_S_iiiiffffff'
GPGPU-Sim uArch: Shader 3 bind to kernel 2 '_Z14calculate_tempiPfS_S_iiiiffffff'
GPGPU-Sim uArch: Shader 4 bind to kernel 2 '_Z14calculate_tempiPfS_S_iiiiffffff'
GPGPU-Sim uArch: Shader 5 bind to kernel 2 '_Z14calculate_tempiPfS_S_iiiiffffff'
GPGPU-Sim uArch: Shader 6 bind to kernel 2 '_Z14calculate_tempiPfS_S_iiiiffffff'
GPGPU-Sim uArch: Shader 7 bind to kernel 2 '_Z14calculate_tempiPfS_S_iiiiffffff'
GPGPU-Sim uArch: Shader 8 bind to kernel 2 '_Z14calculate_tempiPfS_S_iiiiffffff'
GPGPU-Sim uArch: Shader 9 bind to kernel 2 '_Z14calculate_tempiPfS_S_iiiiffffff'
GPGPU-Sim uArch: Shader 10 bind to kernel 2 '_Z14calculate_tempiPfS_S_iiiiffffff'
GPGPU-Sim uArch: Shader 11 bind to kernel 2 '_Z14calculate_tempiPfS_S_iiiiffffff'
GPGPU-Sim uArch: Shader 12 bind to kernel 2 '_Z14calculate_tempiPfS_S_iiiiffffff'
GPGPU-Sim uArch: Shader 13 bind to kernel 2 '_Z14calculate_tempiPfS_S_iiiiffffff'
GPGPU-Sim uArch: Shader 14 bind to kernel 2 '_Z14calculate_tempiPfS_S_iiiiffffff'
GPGPU-Sim uArch: Shader 15 bind to kernel 2 '_Z14calculate_tempiPfS_S_iiiiffffff'
GPGPU-Sim uArch: Shader 16 bind to kernel 2 '_Z14calculate_tempiPfS_S_iiiiffffff'
GPGPU-Sim uArch: Shader 17 bind to kernel 2 '_Z14calculate_tempiPfS_S_iiiiffffff'
GPGPU-Sim uArch: Shader 18 bind to kernel 2 '_Z14calculate_tempiPfS_S_iiiiffffff'
GPGPU-Sim uArch: Shader 19 bind to kernel 2 '_Z14calculate_tempiPfS_S_iiiiffffff'
GPGPU-Sim uArch: Shader 20 bind to kernel 2 '_Z14calculate_tempiPfS_S_iiiiffffff'
GPGPU-Sim uArch: Shader 21 bind to kernel 2 '_Z14calculate_tempiPfS_S_iiiiffffff'
GPGPU-Sim uArch: Shader 22 bind to kernel 2 '_Z14calculate_tempiPfS_S_iiiiffffff'
GPGPU-Sim uArch: Shader 23 bind to kernel 2 '_Z14calculate_tempiPfS_S_iiiiffffff'
GPGPU-Sim uArch: Shader 24 bind to kernel 2 '_Z14calculate_tempiPfS_S_iiiiffffff'
[...]
F:  1151235----T:  1153840 	 St: c0600000 Sz: 4096 	 Sm: 0 	 T: memcpy_h2d(1.758947)
F:  1153840----T:  1162080 	 St: c0601000 Sz: 61440 	 Sm: 0 	 T: memcpy_h2d(5.563808)
F:  1162080----T:  1164685 	 St: c0a10000 Sz: 4096 	 Sm: 0 	 T: memcpy_h2d(1.758947)
F:  1164685----T:  1172925 	 St: c0a11000 Sz: 61440 	 Sm: 0 	 T: memcpy_h2d(5.563808)
F:  1174131----T:  1177217 	 St: c0220000 Sz: 12288 	 Sm: 0 	 T: memcpy_h2d(2.083727)
F:  1177217----T:  1191975 	 St: c0223000 Sz: 118784 	 Sm: 0 	 T: memcpy_h2d(9.964889)
F:  1191975----T:  1195061 	 St: c0610000 Sz: 12288 	 Sm: 0 	 T: memcpy_h2d(2.083727)
F:  1195061----T:  1202383 	 St: c0613000 Sz: 53248 	 Sm: 0 	 T: memcpy_h2d(4.943957)
F:  1202383----T:  1204988 	 St: c0a20000 Sz: 4096 	 Sm: 0 	 T: memcpy_h2d(1.758947)
F:  1204988----T:  1220683 	 St: c0a21000 Sz: 126976 	 Sm: 0 	 T: memcpy_h2d(10.597569)
F:  1222294----T:  1224899 	 St: c0240000 Sz: 4096 	 Sm: 0 	 T: memcpy_h2d(1.758947)
F:  1224899----T:  1255622 	 St: c0241000 Sz: 258048 	 Sm: 0 	 T: memcpy_h2d(20.744766)
F:  1255622----T:  1258227 	 St: c0620000 Sz: 4096 	 Sm: 0 	 T: memcpy_h2d(1.758947)
F:  1258227----T:  1273922 	 St: c0621000 Sz: 126976 	 Sm: 0 	 T: memcpy_h2d(10.597569)
F:  1273922----T:  1276527 	 St: c0a40000 Sz: 4096 	 Sm: 0 	 T: memcpy_h2d(1.758947)
F:  1276527----T:  1307250 	 St: c0a41000 Sz: 258048 	 Sm: 0 	 T: memcpy_h2d(20.744766)
F:  1314636----T:  1317241 	 St: c0640000 Sz: 4096 	 Sm: 0 	 T: memcpy_h2d(1.758947)
F:  1317241----T:  1347964 	 St: c0641000 Sz: 258048 	 Sm: 0 	 T: memcpy_h2d(20.744766)
F:  1356580----T:  1359666 	 St: c0280000 Sz: 12288 	 Sm: 0 	 T: memcpy_h2d(2.083727)
F:  1359666----T:  1419561 	 St: c0283000 Sz: 512000 	 Sm: 0 	 T: memcpy_h2d(40.442268)
F:  1419561----T:  1422166 	 St: c0a80000 Sz: 4096 	 Sm: 0 	 T: memcpy_h2d(1.758947)
F:  1422166----T:  1483002 	 St: c0a81000 Sz: 520192 	 Sm: 0 	 T: memcpy_h2d(41.077652)
F:  1488406----T:  1491011 	 St: c0680000 Sz: 4096 	 Sm: 0 	 T: memcpy_h2d(1.758947)
F:  1491011----T:  1551847 	 St: c0681000 Sz: 520192 	 Sm: 0 	 T: memcpy_h2d(41.077652)
F:  1575499----T:  1578104 	 St: c0300000 Sz: 4096 	 Sm: 0 	 T: memcpy_h2d(1.758947)
F:  1575499----T:  1817579 	 St: c0000000 Sz: 2097152 	 Sm: 0 	 T: write_back(163.457123)
F:  1578104----T:  1699193 	 St: c0301000 Sz: 1044480 	 Sm: 0 	 T: memcpy_h2d(81.761650)
F:  1699568----T:  1702173 	 St: c0b00000 Sz: 4096 	 Sm: 0 	 T: memcpy_h2d(1.758947)
F:  1702173----T:  1823262 	 St: c0b01000 Sz: 1044480 	 Sm: 0 	 T: memcpy_h2d(81.761650)
F:  1829639----T:  1832244 	 St: c0700000 Sz: 4096 	 Sm: 0 	 T: memcpy_h2d(1.758947)
F:  1829639----T:  2071719 	 St: c0800000 Sz: 2097152 	 Sm: 0 	 T: write_back(163.457123)
F:  1832244----T:  1953333 	 St: c0701000 Sz: 1044480 	 Sm: 0 	 T: memcpy_h2d(81.761650)
F:  2359105----T:  4231442 	 	 	 Kl: 2 	 Sm: 0 	 T: kernel_launch(1264.238403)
F:  2359854----T:  2362940 	 St: c0800000 Sz: 12288 	 Sm: 0 	 T: memcpy_h2d(2.083727)
F:  2362940----T:  2370262 	 St: c0803000 Sz: 53248 	 Sm: 0 	 T: memcpy_h2d(4.943957)
F:  2370262----T:  2373348 	 St: c0810000 Sz: 12288 	 Sm: 0 	 T: memcpy_h2d(2.083727)
F:  2373348----T:  2380670 	 St: c0813000 Sz: 53248 	 Sm: 0 	 T: memcpy_h2d(4.943957)
F:  2380670----T:  2383756 	 St: c0820000 Sz: 12288 	 Sm: 0 	 T: memcpy_h2d(2.083727)
F:  2383756----T:  2398514 	 St: c0823000 Sz: 118784 	 Sm: 0 	 T: memcpy_h2d(9.964889)
F:  2398514----T:  2401119 	 St: c0000000 Sz: 4096 	 Sm: 0 	 T: memcpy_h2d(1.758947)
F:  2401119----T:  2409359 	 St: c0001000 Sz: 61440 	 Sm: 0 	 T: memcpy_h2d(5.563808)
F:  2409359----T:  2412445 	 St: c0010000 Sz: 12288 	 Sm: 0 	 T: memcpy_h2d(2.083727)
F:  2412445----T:  2419767 	 St: c0013000 Sz: 53248 	 Sm: 0 	 T: memcpy_h2d(4.943957)
F:  2419767----T:  2422372 	 St: c0020000 Sz: 4096 	 Sm: 0 	 T: memcpy_h2d(1.758947)
F:  2422372----T:  2438067 	 St: c0021000 Sz: 126976 	 Sm: 0 	 T: memcpy_h2d(10.597569)
F:  2446131----T:  2448736 	 St: c0840000 Sz: 4096 	 Sm: 0 	 T: memcpy_h2d(1.758947)
F:  2448736----T:  2479459 	 St: c0841000 Sz: 258048 	 Sm: 0 	 T: memcpy_h2d(20.744766)
F:  2484857----T:  2487462 	 St: c0040000 Sz: 4096 	 Sm: 0 	 T: memcpy_h2d(1.758947)
F:  2487462----T:  2518185 	 St: c0041000 Sz: 258048 	 Sm: 0 	 T: memcpy_h2d(20.744766)
F:  2527128----T:  2530214 	 St: c0880000 Sz: 12288 	 Sm: 0 	 T: memcpy_h2d(2.083727)
F:  2530214----T:  2590109 	 St: c0883000 Sz: 512000 	 Sm: 0 	 T: memcpy_h2d(40.442268)
F:  2595736----T:  2598822 	 St: c0080000 Sz: 12288 	 Sm: 0 	 T: memcpy_h2d(2.083727)
F:  2595736----T:  2837816 	 St: c0200000 Sz: 2097152 	 Sm: 0 	 T: write_back(163.457123)
F:  2598822----T:  2658717 	 St: c0083000 Sz: 512000 	 Sm: 0 	 T: memcpy_h2d(40.442268)
F:  2862516----T:  2865602 	 St: c0900000 Sz: 12288 	 Sm: 0 	 T: memcpy_h2d(2.083727)
F:  2865602----T:  2985750 	 St: c0903000 Sz: 1036288 	 Sm: 0 	 T: memcpy_h2d(81.126266)
F:  2991306----T:  2993911 	 St: c0100000 Sz: 4096 	 Sm: 0 	 T: memcpy_h2d(1.758947)
F:  2991306----T:  3233386 	 St: c0a00000 Sz: 2097152 	 Sm: 0 	 T: write_back(163.457123)
F:  2993911----T:  3115000 	 St: c0101000 Sz: 1044480 	 Sm: 0 	 T: memcpy_h2d(81.761650)
F:  3293004----T:  3296090 	 St: c0a00000 Sz: 12288 	 Sm: 0 	 T: memcpy_h2d(2.083727)
F:  3296090----T:  3303412 	 St: c0a03000 Sz: 53248 	 Sm: 0 	 T: memcpy_h2d(4.943957)
F:  3304751----T:  3307356 	 St: c0a10000 Sz: 4096 	 Sm: 0 	 T: memcpy_h2d(1.758947)
F:  3307356----T:  3315596 	 St: c0a11000 Sz: 61440 	 Sm: 0 	 T: memcpy_h2d(5.563808)
F:  3315596----T:  3318201 	 St: c0200000 Sz: 4096 	 Sm: 0 	 T: memcpy_h2d(1.758947)
F:  3318201----T:  3326441 	 St: c0201000 Sz: 61440 	 Sm: 0 	 T: memcpy_h2d(5.563808)
F:  3326441----T:  3329046 	 St: c0210000 Sz: 4096 	 Sm: 0 	 T: memcpy_h2d(1.758947)
F:  3329046----T:  3337286 	 St: c0211000 Sz: 61440 	 Sm: 0 	 T: memcpy_h2d(5.563808)
F:  3338539----T:  3341625 	 St: c0a20000 Sz: 12288 	 Sm: 0 	 T: memcpy_h2d(2.083727)
F:  3341625----T:  3356383 	 St: c0a23000 Sz: 118784 	 Sm: 0 	 T: memcpy_h2d(9.964889)
F:  3357416----T:  3360021 	 St: c0a40000 Sz: 4096 	 Sm: 0 	 T: memcpy_h2d(1.758947)
F:  3360021----T:  3390744 	 St: c0a41000 Sz: 258048 	 Sm: 0 	 T: memcpy_h2d(20.744766)
F:  3390744----T:  3393830 	 St: c0220000 Sz: 12288 	 Sm: 0 	 T: memcpy_h2d(2.083727)
F:  3393830----T:  3408588 	 St: c0223000 Sz: 118784 	 Sm: 0 	 T: memcpy_h2d(9.964889)
F:  3415803----T:  3418408 	 St: c0240000 Sz: 4096 	 Sm: 0 	 T: memcpy_h2d(1.758947)
F:  3418408----T:  3449131 	 St: c0241000 Sz: 258048 	 Sm: 0 	 T: memcpy_h2d(20.744766)
F:  3458231----T:  3462872 	 St: c0a80000 Sz: 28672 	 Sm: 0 	 T: memcpy_h2d(3.133693)
F:  3462872----T:  3520884 	 St: c0a87000 Sz: 495616 	 Sm: 0 	 T: memcpy_h2d(39.170830)
F:  3526449----T:  3529535 	 St: c0280000 Sz: 12288 	 Sm: 0 	 T: memcpy_h2d(2.083727)
F:  3526449----T:  3768529 	 St: c0400000 Sz: 2097152 	 Sm: 0 	 T: write_back(163.457123)
F:  3529535----T:  3589430 	 St: c0283000 Sz: 512000 	 Sm: 0 	 T: memcpy_h2d(40.442268)
F:  3792498----T:  3795103 	 St: c0b00000 Sz: 4096 	 Sm: 0 	 T: memcpy_h2d(1.758947)
F:  3795103----T:  3916192 	 St: c0b01000 Sz: 1044480 	 Sm: 0 	 T: memcpy_h2d(81.761650)
F:  3922085----T:  3924690 	 St: c0300000 Sz: 4096 	 Sm: 0 	 T: memcpy_h2d(1.758947)
F:  3922085----T:  4164165 	 St: c0800000 Sz: 2097152 	 Sm: 0 	 T: write_back(163.457123)
F:  3924690----T:  4045779 	 St: c0301000 Sz: 1044480 	 Sm: 0 	 T: memcpy_h2d(81.761650)
F:  4453592----T:  6325432 	 	 	 Kl: 3 	 Sm: 0 	 T: kernel_launch(1263.902710)
F:  4454333----T:  4457419 	 St: c0800000 Sz: 12288 	 Sm: 0 	 T: memcpy_h2d(2.083727)
F:  4457419----T:  4464741 	 St: c0803000 Sz: 53248 	 Sm: 0 	 T: memcpy_h2d(4.943957)
F:  4464741----T:  4467827 	 St: c0810000 Sz: 12288 	 Sm: 0 	 T: memcpy_h2d(2.083727)
F:  4467827----T:  4475149 	 St: c0813000 Sz: 53248 	 Sm: 0 	 T: memcpy_h2d(4.943957)
F:  4475149----T:  4478235 	 St: c0820000 Sz: 12288 	 Sm: 0 	 T: memcpy_h2d(2.083727)
F:  4478235----T:  4492993 	 St: c0823000 Sz: 118784 	 Sm: 0 	 T: memcpy_h2d(9.964889)
F:  4492993----T:  4496079 	 St: c0400000 Sz: 12288 	 Sm: 0 	 T: memcpy_h2d(2.083727)
F:  4496079----T:  4503401 	 St: c0403000 Sz: 53248 	 Sm: 0 	 T: memcpy_h2d(4.943957)
F:  4503401----T:  4506006 	 St: c0410000 Sz: 4096 	 Sm: 0 	 T: memcpy_h2d(1.758947)
F:  4506006----T:  4514246 	 St: c0411000 Sz: 61440 	 Sm: 0 	 T: memcpy_h2d(5.563808)
F:  4514246----T:  4516851 	 St: c0420000 Sz: 4096 	 Sm: 0 	 T: memcpy_h2d(1.758947)
F:  4516851----T:  4532546 	 St: c0421000 Sz: 126976 	 Sm: 0 	 T: memcpy_h2d(10.597569)
F:  4540601----T:  4543687 	 St: c0840000 Sz: 12288 	 Sm: 0 	 T: memcpy_h2d(2.083727)
F:  4543687----T:  4573470 	 St: c0843000 Sz: 249856 	 Sm: 0 	 T: memcpy_h2d(20.110062)
F:  4578943----T:  4581548 	 St: c0440000 Sz: 4096 	 Sm: 0 	 T: memcpy_h2d(1.758947)
F:  4581548----T:  4612271 	 St: c0441000 Sz: 258048 	 Sm: 0 	 T: memcpy_h2d(20.744766)
F:  4621189----T:  4624275 	 St: c0880000 Sz: 12288 	 Sm: 0 	 T: memcpy_h2d(2.083727)
F:  4624275----T:  4684170 	 St: c0883000 Sz: 512000 	 Sm: 0 	 T: memcpy_h2d(40.442268)
F:  4689747----T:  4692833 	 St: c0480000 Sz: 12288 	 Sm: 0 	 T: memcpy_h2d(2.083727)
F:  4689747----T:  4931827 	 St: c0600000 Sz: 2097152 	 Sm: 0 	 T: write_back(163.457123)
F:  4692833----T:  4752728 	 St: c0483000 Sz: 512000 	 Sm: 0 	 T: memcpy_h2d(40.442268)
F:  4956944----T:  4960030 	 St: c0900000 Sz: 12288 	 Sm: 0 	 T: memcpy_h2d(2.083727)
F:  4960030----T:  5080178 	 St: c0903000 Sz: 1036288 	 Sm: 0 	 T: memcpy_h2d(81.126266)
F:  5085636----T:  5088241 	 St: c0500000 Sz: 4096 	 Sm: 0 	 T: memcpy_h2d(1.758947)
F:  5085636----T:  5327716 	 St: c0a00000 Sz: 2097152 	 Sm: 0 	 T: write_back(163.457123)
F:  5088241----T:  5209330 	 St: c0501000 Sz: 1044480 	 Sm: 0 	 T: memcpy_h2d(81.761650)
F:  5387186----T:  5390272 	 St: c0a00000 Sz: 12288 	 Sm: 0 	 T: memcpy_h2d(2.083727)
F:  5390272----T:  5397594 	 St: c0a03000 Sz: 53248 	 Sm: 0 	 T: memcpy_h2d(4.943957)
F:  5398902----T:  5401507 	 St: c0a10000 Sz: 4096 	 Sm: 0 	 T: memcpy_h2d(1.758947)
F:  5401507----T:  5409747 	 St: c0a11000 Sz: 61440 	 Sm: 0 	 T: memcpy_h2d(5.563808)
F:  5409747----T:  5412352 	 St: c0600000 Sz: 4096 	 Sm: 0 	 T: memcpy_h2d(1.758947)
F:  5412352----T:  5420592 	 St: c0601000 Sz: 61440 	 Sm: 0 	 T: memcpy_h2d(5.563808)
F:  5420592----T:  5423197 	 St: c0610000 Sz: 4096 	 Sm: 0 	 T: memcpy_h2d(1.758947)
F:  5423197----T:  5431437 	 St: c0611000 Sz: 61440 	 Sm: 0 	 T: memcpy_h2d(5.563808)
F:  5432719----T:  5435805 	 St: c0a20000 Sz: 12288 	 Sm: 0 	 T: memcpy_h2d(2.083727)
F:  5435805----T:  5450563 	 St: c0a23000 Sz: 118784 	 Sm: 0 	 T: memcpy_h2d(9.964889)
F:  5451884----T:  5454489 	 St: c0a40000 Sz: 4096 	 Sm: 0 	 T: memcpy_h2d(1.758947)
F:  5454489----T:  5485212 	 St: c0a41000 Sz: 258048 	 Sm: 0 	 T: memcpy_h2d(20.744766)
F:  5485212----T:  5488298 	 St: c0620000 Sz: 12288 	 Sm: 0 	 T: memcpy_h2d(2.083727)
F:  5488298----T:  5503056 	 St: c0623000 Sz: 118784 	 Sm: 0 	 T: memcpy_h2d(9.964889)
F:  5510154----T:  5513240 	 St: c0640000 Sz: 12288 	 Sm: 0 	 T: memcpy_h2d(2.083727)
F:  5513240----T:  5543023 	 St: c0643000 Sz: 249856 	 Sm: 0 	 T: memcpy_h2d(20.110062)
F:  5552067----T:  5555153 	 St: c0a80000 Sz: 12288 	 Sm: 0 	 T: memcpy_h2d(2.083727)
F:  5555153----T:  5615048 	 St: c0a83000 Sz: 512000 	 Sm: 0 	 T: memcpy_h2d(40.442268)
F:  5620691----T:  5623777 	 St: c0680000 Sz: 12288 	 Sm: 0 	 T: memcpy_h2d(2.083727)
F:  5620691----T:  5862771 	 St: c0000000 Sz: 2097152 	 Sm: 0 	 T: write_back(163.457123)
F:  5623777----T:  5683672 	 St: c0683000 Sz: 512000 	 Sm: 0 	 T: memcpy_h2d(40.442268)
F:  5886647----T:  5889252 	 St: c0b00000 Sz: 4096 	 Sm: 0 	 T: memcpy_h2d(1.758947)
F:  5889252----T:  6010341 	 St: c0b01000 Sz: 1044480 	 Sm: 0 	 T: memcpy_h2d(81.761650)
F:  6016177----T:  6018782 	 St: c0700000 Sz: 4096 	 Sm: 0 	 T: memcpy_h2d(1.758947)
F:  6016177----T:  6258257 	 St: c0800000 Sz: 2097152 	 Sm: 0 	 T: write_back(163.457123)
F:  6018782----T:  6139871 	 St: c0701000 Sz: 1044480 	 Sm: 0 	 T: memcpy_h2d(81.761650)
F:  6547582----T:  8420863 	 	 	 Kl: 4 	 Sm: 0 	 T: kernel_launch(1264.875732)
F:  6548322----T:  6551408 	 St: c0800000 Sz: 12288 	 Sm: 0 	 T: memcpy_h2d(2.083727)
F:  6551408----T:  6558730 	 St: c0803000 Sz: 53248 	 Sm: 0 	 T: memcpy_h2d(4.943957)
F:  6558730----T:  6561816 	 St: c0810000 Sz: 12288 	 Sm: 0 	 T: memcpy_h2d(2.083727)
F:  6561816----T:  6569138 	 St: c0813000 Sz: 53248 	 Sm: 0 	 T: memcpy_h2d(4.943957)
F:  6569138----T:  6572224 	 St: c0820000 Sz: 12288 	 Sm: 0 	 T: memcpy_h2d(2.083727)
F:  6572224----T:  6586982 	 St: c0823000 Sz: 118784 	 Sm: 0 	 T: memcpy_h2d(9.964889)
F:  6586982----T:  6590068 	 St: c0000000 Sz: 12288 	 Sm: 0 	 T: memcpy_h2d(2.083727)
F:  6590068----T:  6597390 	 St: c0003000 Sz: 53248 	 Sm: 0 	 T: memcpy_h2d(4.943957)
F:  6597390----T:  6599995 	 St: c0010000 Sz: 4096 	 Sm: 0 	 T: memcpy_h2d(1.758947)
F:  6599995----T:  6608235 	 St: c0011000 Sz: 61440 	 Sm: 0 	 T: memcpy_h2d(5.563808)
F:  6608235----T:  6610840 	 St: c0020000 Sz: 4096 	 Sm: 0 	 T: memcpy_h2d(1.758947)
F:  6610840----T:  6626535 	 St: c0021000 Sz: 126976 	 Sm: 0 	 T: memcpy_h2d(10.597569)
F:  6634628----T:  6637233 	 St: c0840000 Sz: 4096 	 Sm: 0 	 T: memcpy_h2d(1.758947)
F:  6637233----T:  6667956 	 St: c0841000 Sz: 258048 	 Sm: 0 	 T: memcpy_h2d(20.744766)
F:  6673366----T:  6675971 	 St: c0040000 Sz: 4096 	 Sm: 0 	 T: memcpy_h2d(1.758947)
F:  6675971----T:  6706694 	 St: c0041000 Sz: 258048 	 Sm: 0 	 T: memcpy_h2d(20.744766)
F:  6715457----T:  6718543 	 St: c0880000 Sz: 12288 	 Sm: 0 	 T: memcpy_h2d(2.083727)
F:  6718543----T:  6778438 	 St: c0883000 Sz: 512000 	 Sm: 0 	 T: memcpy_h2d(40.442268)
F:  6783971----T:  6787057 	 St: c0080000 Sz: 12288 	 Sm: 0 	 T: memcpy_h2d(2.083727)
F:  6783971----T:  7026051 	 St: c0200000 Sz: 2097152 	 Sm: 0 	 T: write_back(163.457123)
F:  6787057----T:  6846952 	 St: c0083000 Sz: 512000 	 Sm: 0 	 T: memcpy_h2d(40.442268)
F:  7050779----T:  7053865 	 St: c0900000 Sz: 12288 	 Sm: 0 	 T: memcpy_h2d(2.083727)
F:  7053865----T:  7174013 	 St: c0903000 Sz: 1036288 	 Sm: 0 	 T: memcpy_h2d(81.126266)
F:  7179402----T:  7182007 	 St: c0100000 Sz: 4096 	 Sm: 0 	 T: memcpy_h2d(1.758947)
F:  7179402----T:  7421482 	 St: c0a00000 Sz: 2097152 	 Sm: 0 	 T: write_back(163.457123)
F:  7182007----T:  7303096 	 St: c0101000 Sz: 1044480 	 Sm: 0 	 T: memcpy_h2d(81.761650)
F:  7480949----T:  7483554 	 St: c0a00000 Sz: 4096 	 Sm: 0 	 T: memcpy_h2d(1.758947)
F:  7483554----T:  7491794 	 St: c0a01000 Sz: 61440 	 Sm: 0 	 T: memcpy_h2d(5.563808)
F:  7493378----T:  7495983 	 St: c0a10000 Sz: 4096 	 Sm: 0 	 T: memcpy_h2d(1.758947)
F:  7495983----T:  7504223 	 St: c0a11000 Sz: 61440 	 Sm: 0 	 T: memcpy_h2d(5.563808)
F:  7504223----T:  7506828 	 St: c0200000 Sz: 4096 	 Sm: 0 	 T: memcpy_h2d(1.758947)
F:  7506828----T:  7515068 	 St: c0201000 Sz: 61440 	 Sm: 0 	 T: memcpy_h2d(5.563808)
F:  7515068----T:  7517673 	 St: c0210000 Sz: 4096 	 Sm: 0 	 T: memcpy_h2d(1.758947)
F:  7517673----T:  7525913 	 St: c0211000 Sz: 61440 	 Sm: 0 	 T: memcpy_h2d(5.563808)
F:  7527185----T:  7530271 	 St: c0a20000 Sz: 12288 	 Sm: 0 	 T: memcpy_h2d(2.083727)
F:  7530271----T:  7545029 	 St: c0a23000 Sz: 118784 	 Sm: 0 	 T: memcpy_h2d(9.964889)
F:  7546193----T:  7548798 	 St: c0a40000 Sz: 4096 	 Sm: 0 	 T: memcpy_h2d(1.758947)
F:  7548798----T:  7579521 	 St: c0a41000 Sz: 258048 	 Sm: 0 	 T: memcpy_h2d(20.744766)
F:  7579521----T:  7582126 	 St: c0220000 Sz: 4096 	 Sm: 0 	 T: memcpy_h2d(1.758947)
F:  7582126----T:  7597821 	 St: c0221000 Sz: 126976 	 Sm: 0 	 T: memcpy_h2d(10.597569)
F:  7605172----T:  7607777 	 St: c0240000 Sz: 4096 	 Sm: 0 	 T: memcpy_h2d(1.758947)
F:  7607777----T:  7638500 	 St: c0241000 Sz: 258048 	 Sm: 0 	 T: memcpy_h2d(20.744766)
F:  7647545----T:  7650631 	 St: c0a80000 Sz: 12288 	 Sm: 0 	 T: memcpy_h2d(2.083727)
F:  7650631----T:  7710526 	 St: c0a83000 Sz: 512000 	 Sm: 0 	 T: memcpy_h2d(40.442268)
F:  7716058----T:  7718663 	 St: c0280000 Sz: 4096 	 Sm: 0 	 T: memcpy_h2d(1.758947)
F:  7716058----T:  7958138 	 St: c0400000 Sz: 2097152 	 Sm: 0 	 T: write_back(163.457123)
F:  7718663----T:  7779499 	 St: c0281000 Sz: 520192 	 Sm: 0 	 T: memcpy_h2d(41.077652)
F:  7982119----T:  7984724 	 St: c0b00000 Sz: 4096 	 Sm: 0 	 T: memcpy_h2d(1.758947)
F:  7984724----T:  8105813 	 St: c0b01000 Sz: 1044480 	 Sm: 0 	 T: memcpy_h2d(81.761650)
F:  8111650----T:  8114255 	 St: c0300000 Sz: 4096 	 Sm: 0 	 T: memcpy_h2d(1.758947)
F:  8111650----T:  8353730 	 St: c0800000 Sz: 2097152 	 Sm: 0 	 T: write_back(163.457123)
F:  8114255----T:  8235344 	 St: c0301000 Sz: 1044480 	 Sm: 0 	 T: memcpy_h2d(81.761650)
F:  8420863----T:  8423468 	 St: 0 Sz: 4096 	 Sm: 0 	 T: device_sync(1.758947)
F:  8420863----T:  8429103 	 St: 0 Sz: 61440 	 Sm: 0 	 T: device_sync(5.563808)
F:  8431708----T:  8434313 	 St: 0 Sz: 4096 	 Sm: 0 	 T: device_sync(1.758947)
F:  8431708----T:  8439948 	 St: 0 Sz: 61440 	 Sm: 0 	 T: device_sync(5.563808)
F:  8442553----T:  8445158 	 St: 0 Sz: 4096 	 Sm: 0 	 T: device_sync(1.758947)
F:  8442553----T:  8458248 	 St: 0 Sz: 126976 	 Sm: 0 	 T: device_sync(10.597569)
F:  8460853----T:  8463458 	 St: 0 Sz: 4096 	 Sm: 0 	 T: device_sync(1.758947)
F:  8460853----T:  8491576 	 St: 0 Sz: 258048 	 Sm: 0 	 T: device_sync(20.744766)
F:  8494181----T:  8496786 	 St: 0 Sz: 4096 	 Sm: 0 	 T: device_sync(1.758947)
F:  8494181----T:  8555017 	 St: 0 Sz: 520192 	 Sm: 0 	 T: device_sync(41.077652)
F:  8557622----T:  8560227 	 St: 0 Sz: 4096 	 Sm: 0 	 T: device_sync(1.758947)
F:  8557622----T:  8678711 	 St: 0 Sz: 1044480 	 Sm: 0 	 T: device_sync(81.761650)
F:  8681316----T:  8683921 	 St: 0 Sz: 4096 	 Sm: 0 	 T: device_sync(1.758947)
F:  8681316----T:  8689556 	 St: 0 Sz: 61440 	 Sm: 0 	 T: device_sync(5.563808)
F:  8692161----T:  8694766 	 St: 0 Sz: 4096 	 Sm: 0 	 T: device_sync(1.758947)
F:  8692161----T:  8700401 	 St: 0 Sz: 61440 	 Sm: 0 	 T: device_sync(5.563808)
F:  8703006----T:  8705611 	 St: 0 Sz: 4096 	 Sm: 0 	 T: device_sync(1.758947)
F:  8703006----T:  8718701 	 St: 0 Sz: 126976 	 Sm: 0 	 T: device_sync(10.597569)
F:  8721306----T:  8723911 	 St: 0 Sz: 4096 	 Sm: 0 	 T: device_sync(1.758947)
F:  8721306----T:  8752029 	 St: 0 Sz: 258048 	 Sm: 0 	 T: device_sync(20.744766)
F:  8754634----T:  8757239 	 St: 0 Sz: 4096 	 Sm: 0 	 T: device_sync(1.758947)
F:  8754634----T:  8815470 	 St: 0 Sz: 520192 	 Sm: 0 	 T: device_sync(41.077652)
F:  8818075----T:  8820680 	 St: 0 Sz: 4096 	 Sm: 0 	 T: device_sync(1.758947)
F:  8818075----T:  8939164 	 St: 0 Sz: 1044480 	 Sm: 0 	 T: device_sync(81.761650)
F:  8941769----T:  8944374 	 St: 0 Sz: 4096 	 Sm: 0 	 T: device_sync(1.758947)
F:  8941769----T:  8950009 	 St: 0 Sz: 61440 	 Sm: 0 	 T: device_sync(5.563808)
F:  8952614----T:  8955219 	 St: 0 Sz: 4096 	 Sm: 0 	 T: device_sync(1.758947)
F:  8952614----T:  8960854 	 St: 0 Sz: 61440 	 Sm: 0 	 T: device_sync(5.563808)
F:  8963459----T:  8966064 	 St: 0 Sz: 4096 	 Sm: 0 	 T: device_sync(1.758947)
F:  8963459----T:  8979154 	 St: 0 Sz: 126976 	 Sm: 0 	 T: device_sync(10.597569)
F:  8981759----T:  8984364 	 St: 0 Sz: 4096 	 Sm: 0 	 T: device_sync(1.758947)
F:  8981759----T:  9012482 	 St: 0 Sz: 258048 	 Sm: 0 	 T: device_sync(20.744766)
F:  9015087----T:  9017692 	 St: 0 Sz: 4096 	 Sm: 0 	 T: device_sync(1.758947)
F:  9015087----T:  9075923 	 St: 0 Sz: 520192 	 Sm: 0 	 T: device_sync(41.077652)
F:  9078528----T:  9081133 	 St: 0 Sz: 4096 	 Sm: 0 	 T: device_sync(1.758947)
F:  9078528----T:  9199617 	 St: 0 Sz: 1044480 	 Sm: 0 	 T: device_sync(81.761650)
Tot_prefetch_time: 0(cycle), 0.000000(us)
Tot_kernel_exec_time: 7532263(cycle), 5085.930664(us)
Tot_kernel_exec_time_and_fault_time: 14729923(cycle), 9945.930664(us)
Tot_memcpy_h2d_time: 4667078(cycle), 3151.301758(us)
Tot_memcpy_d2h_time: 0(cycle), 0.000000(us)
Tot_memcpy_time: 4667078(cycle), 3151.301758(us)
Tot_devicesync_time: 781359(cycle), 527.588806(us)
Tot_writeback_time: 3389120(cycle), 2288.399658(us)
Tot_dma_time: 0(cycle), 0.000000(us)
Tot_memcpy_d2h_sync_wb_time: 4170479(cycle), 2815.988525(us)
GPGPU-Sim: *** exit detected ***
