

        *** GPGPU-Sim Simulator Version 3.2.2  [build gpgpu-sim_git-commit-c8c883f82f149f8a735f810bff4b4328d99c95c2_modified_0] ***


GPGPU-Sim PTX: simulation mode 0 (can change with PTX_SIM_MODE_FUNC environment variable:
               1=functional simulation only, 0=detailed performance simulator)
GPGPU-Sim: Configuration options:

-network_mode                           1 # Interconnection network mode
-inter_config_file   config_fermi_islip.icnt # Interconnection network config file
-gpgpu_ptx_use_cuobjdump                    1 # Use cuobjdump to extract ptx and sass from binaries
-gpgpu_experimental_lib_support                    0 # Try to extract code from cuda libraries [Broken because of unknown cudaGetExportTable]
-gpgpu_ptx_convert_to_ptxplus                    0 # Convert SASS (native ISA) to ptxplus and run ptxplus
-gpgpu_ptx_force_max_capability                   20 # Force maximum compute capability
-gpgpu_ptx_inst_debug_to_file                    0 # Dump executed instructions' debug information to file
-gpgpu_ptx_inst_debug_file       inst_debug.txt # Executed instructions' debug output file
-gpgpu_ptx_inst_debug_thread_uid                    1 # Thread UID for executed instructions' debug output
-gpgpu_simd_model                       1 # 1 = post-dominator
-gpgpu_shader_core_pipeline              2048:32 # shader core pipeline config, i.e., {<nthread>:<warpsize>}
-gpgpu_tex_cache:l1  16:128:24,L:R:m:N:L,F:128:4,128:2 # per-shader L1 texture cache  (READ-ONLY) config  {<nsets>:<bsize>:<assoc>,<rep>:<wr>:<alloc>:<wr_alloc>,<mshr>:<N>:<merge>,<mq>:<rf>}
-gpgpu_const_cache:l1 128:64:2,L:R:f:N:L,A:2:64,4 # per-shader L1 constant memory cache  (READ-ONLY) config  {<nsets>:<bsize>:<assoc>,<rep>:<wr>:<alloc>:<wr_alloc>,<mshr>:<N>:<merge>,<mq>} 
-gpgpu_cache:il1     8:128:4,L:R:f:N:L,A:2:48,4 # shader L1 instruction cache config  {<nsets>:<bsize>:<assoc>,<rep>:<wr>:<alloc>:<wr_alloc>,<mshr>:<N>:<merge>,<mq>} 
-gpgpu_cache:dl1     64:128:6,L:L:m:N:H,A:128:8,8 # per-shader L1 data cache config  {<nsets>:<bsize>:<assoc>,<rep>:<wr>:<alloc>:<wr_alloc>,<mshr>:<N>:<merge>,<mq> | none}
-gpgpu_cache:dl1PrefL1                 none # per-shader L1 data cache config  {<nsets>:<bsize>:<assoc>,<rep>:<wr>:<alloc>:<wr_alloc>,<mshr>:<N>:<merge>,<mq> | none}
-gpgpu_cache:dl1PrefShared                 none # per-shader L1 data cache config  {<nsets>:<bsize>:<assoc>,<rep>:<wr>:<alloc>:<wr_alloc>,<mshr>:<N>:<merge>,<mq> | none}
-gmem_skip_L1D                          1 # global memory access skip L1D cache (implements -Xptxas -dlcm=cg, default=no skip)
-gpgpu_perfect_mem                      0 # enable perfect memory mode (no cache miss)
-n_regfile_gating_group                    4 # group of lanes that should be read/written together)
-gpgpu_clock_gated_reg_file                    0 # enable clock gated reg file for power calculations
-gpgpu_clock_gated_lanes                    0 # enable clock gated lanes for power calculations
-gpgpu_shader_registers                65536 # Number of registers per shader core. Limits number of concurrent CTAs. (default 8192)
-gpgpu_shader_cta                      32 # Maximum number of concurrent CTAs in shader (default 8)
-gpgpu_num_cta_barriers                   16 # Maximum number of named barriers per CTA (default 16)
-gpgpu_n_clusters                      28 # number of processing clusters
-gpgpu_n_cores_per_cluster                    1 # number of simd cores per cluster
-gpgpu_n_cluster_ejection_buffer_size                    8 # number of packets in ejection buffer
-gpgpu_n_ldst_response_buffer_size                    2 # number of response packets in ld/st unit ejection buffer
-gpgpu_shmem_size                   16384 # Size of shared memory per shader core (default 16kB)
-gpgpu_shmem_size                   98304 # Size of shared memory per shader core (default 16kB)
-gpgpu_shmem_size_PrefL1                16384 # Size of shared memory per shader core (default 16kB)
-gpgpu_shmem_size_PrefShared                16384 # Size of shared memory per shader core (default 16kB)
-gpgpu_shmem_num_banks                   32 # Number of banks in the shared memory in each shader core (default 16)
-gpgpu_shmem_limited_broadcast                    0 # Limit shared memory to do one broadcast per cycle (default on)
-gpgpu_shmem_warp_parts                    1 # Number of portions a warp is divided into for shared memory bank conflict check 
-gpgpu_warpdistro_shader                   -1 # Specify which shader core to collect the warp size distribution from
-gpgpu_warp_issue_shader                    0 # Specify which shader core to collect the warp issue distribution from
-gpgpu_local_mem_map                    1 # Mapping from local memory space address to simulated GPU physical address space (default = enabled)
-gpgpu_num_reg_banks                   32 # Number of register banks (default = 8)
-gpgpu_reg_bank_use_warp_id                    0 # Use warp ID in mapping registers to banks (default = off)
-gpgpu_operand_collector_num_units_sp                   20 # number of collector units (default = 4)
-gpgpu_operand_collector_num_units_sfu                    4 # number of collector units (default = 4)
-gpgpu_operand_collector_num_units_mem                    8 # number of collector units (default = 2)
-gpgpu_operand_collector_num_units_gen                    0 # number of collector units (default = 0)
-gpgpu_operand_collector_num_in_ports_sp                    4 # number of collector unit in ports (default = 1)
-gpgpu_operand_collector_num_in_ports_sfu                    1 # number of collector unit in ports (default = 1)
-gpgpu_operand_collector_num_in_ports_mem                    1 # number of collector unit in ports (default = 1)
-gpgpu_operand_collector_num_in_ports_gen                    0 # number of collector unit in ports (default = 0)
-gpgpu_operand_collector_num_out_ports_sp                    4 # number of collector unit in ports (default = 1)
-gpgpu_operand_collector_num_out_ports_sfu                    1 # number of collector unit in ports (default = 1)
-gpgpu_operand_collector_num_out_ports_mem                    1 # number of collector unit in ports (default = 1)
-gpgpu_operand_collector_num_out_ports_gen                    0 # number of collector unit in ports (default = 0)
-gpgpu_coalesce_arch                   13 # Coalescing arch (default = 13, anything else is off for now)
-gpgpu_num_sched_per_core                    2 # Number of warp schedulers per core
-gpgpu_max_insn_issue_per_warp                    2 # Max number of instructions that can be issued per warp in one cycle by scheduler
-gpgpu_simt_core_sim_order                    1 # Select the simulation order of cores in a cluster (0=Fix, 1=Round-Robin)
-gpgpu_pipeline_widths        4,1,1,4,1,1,6 # Pipeline widths ID_OC_SP,ID_OC_SFU,ID_OC_MEM,OC_EX_SP,OC_EX_SFU,OC_EX_MEM,EX_WB
-gpgpu_num_sp_units                     4 # Number of SP units (default=1)
-gpgpu_num_sfu_units                    1 # Number of SF units (default=1)
-gpgpu_num_mem_units                    1 # Number if ldst units (default=1) WARNING: not hooked up to anything
-gpgpu_scheduler                      gto # Scheduler configuration: < lrr | gto | two_level_active > If two_level_active:<num_active_warps>:<inner_prioritization>:<outer_prioritization>For complete list of prioritization values see shader.h enum scheduler_prioritization_typeDefault: gto
-gpgpu_concurrent_kernel_sm                    0 # Support concurrent kernels on a SM (default = disabled)
-tlb_size                            4096 # Number of tlb entries per SM.
-gpgpu_dram_scheduler                    1 # 0 = fifo, 1 = FR-FCFS (defaul)
-gpgpu_dram_partition_queues              8:8:8:8 # i2$:$2d:d2$:$2i
-l2_ideal                               0 # Use a ideal L2 cache that always hit
-gpgpu_cache:dl2     64:128:16,L:B:m:W:L,A:1024:1024,4:0,32 # unified banked L2 data cache config  {<nsets>:<bsize>:<assoc>,<rep>:<wr>:<alloc>:<wr_alloc>,<mshr>:<N>:<merge>,<mq>}
-gpgpu_cache:dl2_texture_only                    0 # L2 cache used for texture only
-gpgpu_n_mem                           11 # number of memory modules (e.g. memory controllers) in gpu
-gpgpu_n_sub_partition_per_mchannel                    2 # number of memory subpartition in each memory module
-gpgpu_n_mem_per_ctrlr                    1 # number of memory chips per memory controller
-gpgpu_memlatency_stat                   14 # track and display latency statistics 0x2 enables MC, 0x4 enables queue logs
-gpgpu_frfcfs_dram_sched_queue_size                   64 # 0 = unlimited (default); # entries per chip
-gpgpu_dram_return_queue_size                  116 # 0 = unlimited (default); # entries per chip
-gpgpu_dram_buswidth                    4 # default = 4 bytes (8 bytes per cycle at DDR)
-gpgpu_dram_burst_length                    8 # Burst length of each DRAM request (default = 4 data bus cycle)
-dram_data_command_freq_ratio                    4 # Frequency ratio between DRAM data bus and command bus (default = 2 times, i.e. DDR)
-gpgpu_dram_timing_opt nbk=16:CCD=2:RRD=6:RCD=12:RAS=28:RP=12:RC=40: CL=12:WL=4:CDLR=5:WR=12:nbkgrp=1:CCDL=0:RTPL=0 # DRAM timing parameters = {nbk:tCCD:tRRD:tRCD:tRAS:tRP:tRC:CL:WL:tCDLR:tWR:nbkgrp:tCCDL:tRTPL}
-rop_latency                          120 # ROP queue latency (default 85)
-dram_latency                         100 # DRAM latency (default 30)
-gpgpu_mem_addr_mapping dramid@8;00000000.00000000.00000000.00000000.0000RRRR.RRRRRRRR.RBBBCCCC.BCCSSSSS # mapping memory address to dram model {dramid@<start bit>;<memory address map>}
-gpgpu_mem_addr_test                    0 # run sweep test to check address mapping for aliased address
-gpgpu_mem_address_mask                    1 # 0 = old addressing mask, 1 = new addressing mask, 2 = new add. mask + flipped bank sel and chip sel bits
-gpuwattch_xml_file  gpuwattch_geforcegtx1080ti.xml # GPUWattch XML file
-power_simulation_enabled                    1 # Turn on power simulator (1=On, 0=Off)
-power_per_cycle_dump                    0 # Dump detailed power output each cycle
-power_trace_enabled                    0 # produce a file for the power trace (1=On, 0=Off)
-power_trace_zlevel                     6 # Compression level of the power trace output log (0=no comp, 9=highest)
-steady_power_levels_enabled                    0 # produce a file for the steady power levels (1=On, 0=Off)
-steady_state_definition                  8:4 # allowed deviation:number of samples
-gpgpu_max_cycle                        0 # terminates gpu simulation early (0 = no limit)
-gpgpu_max_insn                         0 # terminates gpu simulation early (0 = no limit)
-gpgpu_max_cta                          0 # terminates gpu simulation early (0 = no limit)
-gpgpu_runtime_stat                   500 # display runtime statistics such as dram utilization {<freq>:<flag>}
-liveness_message_freq                    1 # Minimum number of seconds between simulation liveness messages (0 = always print)
-gpgpu_flush_l1_cache                    0 # Flush L1 cache at the end of each kernel call
-gpgpu_flush_l2_cache                    0 # Flush L2 cache at the end of each kernel call
-gpgpu_deadlock_detect                    0 # Stop the simulation at deadlock (1=on (default), 0=off)
-gpgpu_ptx_instruction_classification                    0 # if enabled will classify ptx instruction types per kernel (Max 255 kernels now)
-gpgpu_ptx_sim_mode                     0 # Select between Performance (default) or Functional simulation (1)
-gpgpu_clock_domains 1481.0:2962.0:1481.0:2750.0 # Clock Domain Frequencies in MhZ {<Core Clock>:<ICNT Clock>:<L2 Clock>:<DRAM Clock>}
-gpgpu_max_concurrent_kernel                    8 # maximum kernels that can run concurrently on GPU
-gpgpu_cflog_interval                    0 # Interval between each snapshot in control flow logger
-visualizer_enabled                     0 # Turn on visualizer output (1=On, 0=Off)
-visualizer_outputfile                 NULL # Specifies the output log file for visualizer
-visualizer_zlevel                      6 # Compression level of the visualizer output log (0=no comp, 9=highest)
-trace_enabled                          0 # Turn on traces
-trace_components                    none # comma seperated list of traces to enable. Complete list found in trace_streams.tup. Default none
-trace_sampling_core                    0 # The core which is printed using CORE_DPRINTF. Default 0
-trace_sampling_memory_partition                   -1 # The memory partition which is printed using MEMPART_DPRINTF. Default -1 (i.e. all)
-gddr_size                          9.6MB # Size of GDDR in MB/GB.(GLOBAL_HEAP_START, GLOBAL_HEAP_START + gddr_size) would be used for unmanged memory, (GLOBAL_HEAP_START + gddr_size, GLOBAL_HEAP_START + gddr_size*2) would be used for managed memory. 
-page_table_walk_latency                  100 # Average page table walk latency (in core cycle).
-eviction_policy                        4 # Select page eviction policy
-invalidate_clean                       0 # Should directly invalidate clean pages
-reserve_accessed_page_percent                    0 # Percentage of accessed pages reserved from eviction in hope that they will be accessed in next iteration.
-percentage_of_free_page_buffer                    0 # Percentage of free page buffer to trigger the page eviction.
-page_size                            4KB # GDDR page size, only 4KB/2MB avaliable.
-pcie_bandwidth                  16.0GB/s # PCI-e bandwidth per direction, in GB/s.
-enable_dma                             0 # Enable direct access to CPU memory
-multiply_dma_penalty                    2 # Oversubscription Multiplicative Penalty Factor for Adaptive DMA
-migrate_threshold                      8 # Access counter threshold for migrating the page from cpu to gpu
-sim_prof_enable                        1 # Enable gpgpu-sim profiler
-hardware_prefetch                      1 # Select gpgpu-sim hardware prefetcher
-hwprefetch_oversub                     1 # Select gpgpu-sim hardware prefetcher under over-subscription
-page_fault_latency                 66645 # Average fault latency (in core cycle).
-enable_accurate_simulation                    0 # Enable page fault functional simulation.
-enable_ptx_file_line_stats                    1 # Turn on PTX source line statistic profiling. (1 = On)
-ptx_line_stats_filename gpgpu_inst_stats.txt # Output file for PTX source line statistics.
-gpgpu_kernel_launch_latency               222150 # Kernel launch latency in cycles. Default: 0
-gpgpu_cdp_enabled                      0 # Turn on CDP
-save_embedded_ptx                      0 # saves ptx files embedded in binary as <n>.ptx
-keep                                   0 # keep intermediate files created by GPGPU-Sim when interfacing with external programs
-gpgpu_ptx_save_converted_ptxplus                    0 # Saved converted ptxplus to a file
-ptx_opcode_latency_int         4,13,4,5,145 # Opcode latencies for integers <ADD,MAX,MUL,MAD,DIV>Default 1,1,19,25,145
-ptx_opcode_latency_fp          4,13,4,5,39 # Opcode latencies for single precision floating points <ADD,MAX,MUL,MAD,DIV>Default 1,1,1,1,30
-ptx_opcode_latency_dp         8,19,8,8,330 # Opcode latencies for double precision floating points <ADD,MAX,MUL,MAD,DIV>Default 8,8,8,8,335
-ptx_opcode_initiation_int            1,2,2,2,8 # Opcode initiation intervals for integers <ADD,MAX,MUL,MAD,DIV>Default 1,1,4,4,32
-ptx_opcode_initiation_fp            1,2,1,1,4 # Opcode initiation intervals for single precision floating points <ADD,MAX,MUL,MAD,DIV>Default 1,1,1,1,5
-ptx_opcode_initiation_dp          1,2,1,1,130 # Opcode initiation intervals for double precision floating points <ADD,MAX,MUL,MAD,DIV>Default 8,8,8,8,130
-cdp_latency         7200,8000,100,12000,1600 # CDP API latency <cudaStreamCreateWithFlags, cudaGetParameterBufferV2_init_perWarp, cudaGetParameterBufferV2_perKernel, cudaLaunchDeviceV2_init_perWarp, cudaLaunchDevicV2_perKernel>Default 7200,8000,100,12000,1600
DRAM Timing Options:
nbk                                    16 # number of banks
CCD                                     2 # column to column delay
RRD                                     6 # minimal delay between activation of rows in different banks
RCD                                    12 # row to column delay
RAS                                    28 # time needed to activate row
RP                                     12 # time needed to precharge (deactivate) row
RC                                     40 # row cycle time
CDLR                                    5 # switching from write to read (changes tWTR)
WR                                     12 # last data-in to row precharge
CL                                     12 # CAS latency
WL                                      4 # Write latency
nbkgrp                                  1 # number of bank groups
CCDL                                    0 # column to column delay between accesses to different bank groups
RTPL                                    0 # read to precharge delay between accesses to different bank groups
Total number of memory sub partition = 22
addr_dec_mask[CHIP]  = 0000000000000000 	high:64 low:0
addr_dec_mask[BK]    = 0000000000007080 	high:15 low:7
addr_dec_mask[ROW]   = 000000000fff8000 	high:28 low:15
addr_dec_mask[COL]   = 0000000000000f7f 	high:12 low:0
addr_dec_mask[BURST] = 000000000000001f 	high:5 low:0
sub_partition_id_mask = 0000000000000080
GPGPU-Sim uArch: clock freqs: 1481000000.000000:2962000000.000000:1481000000.000000:2750000000.000000
GPGPU-Sim uArch: clock periods: 0.00000000067521944632:0.00000000033760972316:0.00000000067521944632:0.00000000036363636364
*** Initializing Memory Statistics ***
GPGPU-Sim uArch: interconnect node map (shaderID+MemID to icntID)
GPGPU-Sim uArch: Memory nodes ID start from index: 28
GPGPU-Sim uArch:    0   1   2   3   4   5   6
GPGPU-Sim uArch:    7   8   9  10  11  12  13
GPGPU-Sim uArch:   14  15  16  17  18  19  20
GPGPU-Sim uArch:   21  22  23  24  25  26  27
GPGPU-Sim uArch:   28  29  30  31  32  33  34
GPGPU-Sim uArch:   35  36  37  38  39  40  41
GPGPU-Sim uArch:   42  43  44  45  46  47  48
GPGPU-Sim uArch:   49
GPGPU-Sim uArch: interconnect node reverse map (icntID to shaderID+MemID)
GPGPU-Sim uArch: Memory nodes start from ID: 28
GPGPU-Sim uArch:    0   1   2   3   4   5   6
GPGPU-Sim uArch:    7   8   9  10  11  12  13
GPGPU-Sim uArch:   14  15  16  17  18  19  20
GPGPU-Sim uArch:   21  22  23  24  25  26  27
GPGPU-Sim uArch:   28  29  30  31  32  33  34
GPGPU-Sim uArch:   35  36  37  38  39  40  41
GPGPU-Sim uArch:   42  43  44  45  46  47  48
GPGPU-Sim uArch:   49
c755b4e9e6a1118e2d736bdbb88f76f4  /root/gpgpu-sim_UVMSmart/benchmarks/Managed/hotspot/hotspot
GPGPU-Sim uArch: performance model initialization complete.
GPGPU-Sim PTX: __cudaRegisterFatBinary, fat_cubin_handle = 1, filename=default
self exe links to: /root/gpgpu-sim_UVMSmart/benchmarks/Managed/hotspot/hotspot
Running md5sum using "md5sum /root/gpgpu-sim_UVMSmart/benchmarks/Managed/hotspot/hotspot "
Parsing file _cuobjdump_complete_output_pIryCZ
######### cuobjdump parser ########
## Adding new section ELF
Adding arch: sm_20
Adding identifier: default
## Adding new section ELF
Adding arch: sm_20
Adding identifier: default
## Adding new section PTX
Adding ptx filename: _cuobjdump_1.ptx
Adding arch: sm_20
Adding identifier: default
Done parsing!!!
GPGPU-Sim PTX: __cudaRegisterFunction _Z14calculate_tempiPfS_S_iiiiffffff : hostFun 0x0x401ae2, fat_cubin_handle = 1
GPGPU-Sim PTX: allocating shared region for "_Z14calculate_tempiPfS_S_iiiiffffff$__cuda_local_var_16165_39_non_const_temp_on_cuda" from 0x0 to 0x400 (shared memory space)
GPGPU-Sim PTX: allocating shared region for "_Z14calculate_tempiPfS_S_iiiiffffff$__cuda_local_var_16166_39_non_const_power_on_cuda" from 0x400 to 0x800 (shared memory space)
GPGPU-Sim PTX: allocating shared region for "_Z14calculate_tempiPfS_S_iiiiffffff$__cuda_local_var_16167_39_non_const_temp_t" from 0x800 to 0xc00 (shared memory space)
GPGPU-Sim PTX: instruction assembly for function '_Z14calculate_tempiPfS_S_iiiiffffff'...   done.
GPGPU-Sim PTX: finding reconvergence points for '_Z14calculate_tempiPfS_S_iiiiffffff'...
GPGPU-Sim PTX: Finding dominators for '_Z14calculate_tempiPfS_S_iiiiffffff'...
GPGPU-Sim PTX: Finding immediate dominators for '_Z14calculate_tempiPfS_S_iiiiffffff'...
GPGPU-Sim PTX: Finding postdominators for '_Z14calculate_tempiPfS_S_iiiiffffff'...
GPGPU-Sim PTX: Finding immediate postdominators for '_Z14calculate_tempiPfS_S_iiiiffffff'...
GPGPU-Sim PTX: pre-decoding instructions for '_Z14calculate_tempiPfS_S_iiiiffffff'...
GPGPU-Sim PTX: reconvergence points for _Z14calculate_tempiPfS_S_iiiiffffff...
GPGPU-Sim PTX:  1 (potential) branch divergence @  PC=0x118 (_1.ptx:82) @!%p7 bra BB0_2;
GPGPU-Sim PTX:    immediate post dominator      @  PC=0x1b8 (_1.ptx:106) bar.sync 0;
GPGPU-Sim PTX:  2 (potential) branch divergence @  PC=0x120 (_1.ptx:83) bra.uni BB0_1;
GPGPU-Sim PTX:    immediate post dominator      @  PC=0x128 (_1.ptx:86) mad.lo.s32 %r27, %r1, %r10, %r2;
GPGPU-Sim PTX:  3 (potential) branch divergence @  PC=0x1c8 (_1.ptx:108) @%p8 bra BB0_11;
GPGPU-Sim PTX:    immediate post dominator      @  PC=0x5b0 (_1.ptx:247) and.b16 %rs7, %rs8, 255;
GPGPU-Sim PTX:  4 (potential) branch divergence @  PC=0x338 (_1.ptx:157) @!%p15 bra BB0_7;
GPGPU-Sim PTX:    immediate post dominator      @  PC=0x538 (_1.ptx:226) bar.sync 0;
GPGPU-Sim PTX:  5 (potential) branch divergence @  PC=0x340 (_1.ptx:158) bra.uni BB0_5;
GPGPU-Sim PTX:    immediate post dominator      @  PC=0x348 (_1.ptx:161) setp.gt.s32%p16, %r23, %r6;
GPGPU-Sim PTX:  6 (potential) branch divergence @  PC=0x3d0 (_1.ptx:178) @%p28 bra BB0_7;
GPGPU-Sim PTX:    immediate post dominator      @  PC=0x538 (_1.ptx:226) bar.sync 0;
GPGPU-Sim PTX:  7 (potential) branch divergence @  PC=0x548 (_1.ptx:228) @%p31 bra BB0_11;
GPGPU-Sim PTX:    immediate post dominator      @  PC=0x5b0 (_1.ptx:247) and.b16 %rs7, %rs8, 255;
GPGPU-Sim PTX:  8 (potential) branch divergence @  PC=0x558 (_1.ptx:231) @%p32 bra BB0_10;
GPGPU-Sim PTX:    immediate post dominator      @  PC=0x590 (_1.ptx:241) bar.sync 0;
GPGPU-Sim PTX:  9 (potential) branch divergence @  PC=0x5a8 (_1.ptx:244) @%p33 bra BB0_4;
GPGPU-Sim PTX:    immediate post dominator      @  PC=0x5b0 (_1.ptx:247) and.b16 %rs7, %rs8, 255;
GPGPU-Sim PTX: 10 (potential) branch divergence @  PC=0x5c0 (_1.ptx:249) @%p34 bra BB0_13;
GPGPU-Sim PTX:    immediate post dominator      @  PC=0x620 (_1.ptx:264) ret;
GPGPU-Sim PTX: ... end of reconvergence points for _Z14calculate_tempiPfS_S_iiiiffffff
GPGPU-Sim PTX: ... done pre-decoding instructions for '_Z14calculate_tempiPfS_S_iiiiffffff'.
GPGPU-Sim PTX: finished parsing EMBEDDED .ptx file _1.ptx
Adding _cuobjdump_1.ptx with cubin handle 1
GPGPU-Sim PTX: extracting embedded .ptx to temporary file "_ptx_y13nuH"
Running: cat _ptx_y13nuH | sed 's/.version 1.5/.version 1.4/' | sed 's/, texmode_independent//' | sed 's/\(\.extern \.const\[1\] .b8 \w\+\)\[\]/\1\[1\]/' | sed 's/const\[.\]/const\[0\]/g' > _ptx2_dzYemp
GPGPU-Sim PTX: generating ptxinfo using "$CUDA_INSTALL_PATH/bin/ptxas --gpu-name=sm_20 -v _ptx2_dzYemp --output-file  /dev/null 2> _ptx_y13nuHinfo"
GPGPU-Sim PTX: Kernel '_Z14calculate_tempiPfS_S_iiiiffffff' : regs=34, lmem=0, smem=3072, cmem=120
GPGPU-Sim PTX: removing ptxinfo using "rm -f _ptx_y13nuH _ptx2_dzYemp _ptx_y13nuHinfo"
GPGPU-Sim PTX: loading globals with explicit initializers... 
GPGPU-Sim PTX: finished loading globals (0 bytes total).
GPGPU-Sim PTX: loading constants with explicit initializers...  done.
WG size of kernel = 16 X 16
pyramidHeight: 2
gridSize: [1024, 1024]
border:[2, 2]
blockGrid:[86, 86]
targetBlock:[12, 12]
Start computing the transient temperature

GPGPU-Sim PTX: cudaLaunch for 0x0x401ae2 (mode=performance simulation) on stream 0
GPGPU-Sim PTX: pushing kernel '_Z14calculate_tempiPfS_S_iiiiffffff' to stream 0, gridDim= (86,86,1) blockDim = (16,16,1) 
GPGPU-Sim uArch: Shader 1 bind to kernel 1 '_Z14calculate_tempiPfS_S_iiiiffffff'
GPGPU-Sim uArch: CTA/core = 7, limited by: regs
GPGPU-Sim uArch: Shader 2 bind to kernel 1 '_Z14calculate_tempiPfS_S_iiiiffffff'
GPGPU-Sim uArch: Shader 3 bind to kernel 1 '_Z14calculate_tempiPfS_S_iiiiffffff'
GPGPU-Sim uArch: Shader 4 bind to kernel 1 '_Z14calculate_tempiPfS_S_iiiiffffff'
GPGPU-Sim uArch: Shader 5 bind to kernel 1 '_Z14calculate_tempiPfS_S_iiiiffffff'
GPGPU-Sim uArch: Shader 6 bind to kernel 1 '_Z14calculate_tempiPfS_S_iiiiffffff'
GPGPU-Sim uArch: Shader 7 bind to kernel 1 '_Z14calculate_tempiPfS_S_iiiiffffff'
GPGPU-Sim uArch: Shader 8 bind to kernel 1 '_Z14calculate_tempiPfS_S_iiiiffffff'
GPGPU-Sim uArch: Shader 9 bind to kernel 1 '_Z14calculate_tempiPfS_S_iiiiffffff'
GPGPU-Sim uArch: Shader 10 bind to kernel 1 '_Z14calculate_tempiPfS_S_iiiiffffff'
GPGPU-Sim uArch: Shader 11 bind to kernel 1 '_Z14calculate_tempiPfS_S_iiiiffffff'
GPGPU-Sim uArch: Shader 12 bind to kernel 1 '_Z14calculate_tempiPfS_S_iiiiffffff'
GPGPU-Sim uArch: Shader 13 bind to kernel 1 '_Z14calculate_tempiPfS_S_iiiiffffff'
GPGPU-Sim uArch: Shader 14 bind to kernel 1 '_Z14calculate_tempiPfS_S_iiiiffffff'
GPGPU-Sim uArch: Shader 15 bind to kernel 1 '_Z14calculate_tempiPfS_S_iiiiffffff'
GPGPU-Sim uArch: Shader 16 bind to kernel 1 '_Z14calculate_tempiPfS_S_iiiiffffff'
GPGPU-Sim uArch: Shader 17 bind to kernel 1 '_Z14calculate_tempiPfS_S_iiiiffffff'
GPGPU-Sim uArch: Shader 18 bind to kernel 1 '_Z14calculate_tempiPfS_S_iiiiffffff'
GPGPU-Sim uArch: Shader 19 bind to kernel 1 '_Z14calculate_tempiPfS_S_iiiiffffff'
GPGPU-Sim uArch: Shader 20 bind to kernel 1 '_Z14calculate_tempiPfS_S_iiiiffffff'
GPGPU-Sim uArch: Shader 21 bind to kernel 1 '_Z14calculate_tempiPfS_S_iiiiffffff'
GPGPU-Sim uArch: Shader 22 bind to kernel 1 '_Z14calculate_tempiPfS_S_iiiiffffff'
GPGPU-Sim uArch: Shader 23 bind to kernel 1 '_Z14calculate_tempiPfS_S_iiiiffffff'
GPGPU-Sim uArch: Shader 24 bind to kernel 1 '_Z14calculate_tempiPfS_S_iiiiffffff'
GPGPU-Sim uArch: Shader 25 bind to kernel 1 '_Z14calculate_tempiPfS_S_iiiiffffff'
GPGPU-Sim uArch: Shader 26 bind to kernel 1 '_Z14calculate_tempiPfS_S_iiiiffffff'
GPGPU-Sim uArch: Shader 27 bind to kernel 1 '_Z14calculate_tempiPfS_S_iiiiffffff'
GPGPU-Sim uArch: Shader 0 bind to kernel 1 '_Z14calculate_tempiPfS_S_iiiiffffff'
GPGPU-Sim uArch: Shader 1 bind to kernel 1 '_Z14calculate_tempiPfS_S_iiiiffffff'
GPGPU-Sim uArch: Shader 2 bind to kernel 1 '_Z14calculate_tempiPfS_S_iiiiffffff'
GPGPU-Sim uArch: Shader 3 bind to kernel 1 '_Z14calculate_tempiPfS_S_iiiiffffff'
GPGPU-Sim uArch: Shader 4 bind to kernel 1 '_Z14calculate_tempiPfS_S_iiiiffffff'
GPGPU-Sim uArch: Shader 7 bind to kernel 1 '_Z14calculate_tempiPfS_S_iiiiffffff'
GPGPU-Sim uArch: Shader 13 bind to kernel 1 '_Z14calculate_tempiPfS_S_iiiiffffff'
GPGPU-Sim uArch: Shader 15 bind to kernel 1 '_Z14calculate_tempiPfS_S_iiiiffffff'
GPGPU-Sim uArch: Shader 17 bind to kernel 1 '_Z14calculate_tempiPfS_S_iiiiffffff'
GPGPU-Sim uArch: Shader 18 bind to kernel 1 '_Z14calculate_tempiPfS_S_iiiiffffff'
GPGPU-Sim uArch: Shader 21 bind to kernel 1 '_Z14calculate_tempiPfS_S_iiiiffffff'
GPGPU-Sim uArch: Shader 24 bind to kernel 1 '_Z14calculate_tempiPfS_S_iiiiffffff'
GPGPU-Sim uArch: Shader 25 bind to kernel 1 '_Z14calculate_tempiPfS_S_iiiiffffff'
GPGPU-Sim uArch: Shader 27 bind to kernel 1 '_Z14calculate_tempiPfS_S_iiiiffffff'
GPGPU-Sim uArch: Shader 0 bind to kernel 1 '_Z14calculate_tempiPfS_S_iiiiffffff'
GPGPU-Sim uArch: Shader 14 bind to kernel 1 '_Z14calculate_tempiPfS_S_iiiiffffff'
GPGPU-Sim uArch: Shader 15 bind to kernel 1 '_Z14calculate_tempiPfS_S_iiiiffffff'
GPGPU-Sim uArch: Shader 18 bind to kernel 1 '_Z14calculate_tempiPfS_S_iiiiffffff'
GPGPU-Sim uArch: Shader 22 bind to kernel 1 '_Z14calculate_tempiPfS_S_iiiiffffff'
GPGPU-Sim uArch: Shader 23 bind to kernel 1 '_Z14calculate_tempiPfS_S_iiiiffffff'
GPGPU-Sim uArch: Shader 27 bind to kernel 1 '_Z14calculate_tempiPfS_S_iiiiffffff'
GPGPU-Sim uArch: Shader 4 bind to kernel 1 '_Z14calculate_tempiPfS_S_iiiiffffff'
GPGPU-Sim uArch: Shader 8 bind to kernel 1 '_Z14calculate_tempiPfS_S_iiiiffffff'
GPGPU-Sim uArch: Shader 11 bind to kernel 1 '_Z14calculate_tempiPfS_S_iiiiffffff'
GPGPU-Sim uArch: Shader 12 bind to kernel 1 '_Z14calculate_tempiPfS_S_iiiiffffff'
GPGPU-Sim uArch: Shader 13 bind to kernel 1 '_Z14calculate_tempiPfS_S_iiiiffffff'
GPGPU-Sim uArch: Shader 15 bind to kernel 1 '_Z14calculate_tempiPfS_S_iiiiffffff'
GPGPU-Sim uArch: Shader 20 bind to kernel 1 '_Z14calculate_tempiPfS_S_iiiiffffff'
GPGPU-Sim uArch: Shader 24 bind to kernel 1 '_Z14calculate_tempiPfS_S_iiiiffffff'
GPGPU-Sim uArch: Shader 4 bind to kernel 1 '_Z14calculate_tempiPfS_S_iiiiffffff'
GPGPU-Sim uArch: Shader 6 bind to kernel 1 '_Z14calculate_tempiPfS_S_iiiiffffff'
GPGPU-Sim uArch: Shader 12 bind to kernel 1 '_Z14calculate_tempiPfS_S_iiiiffffff'
GPGPU-Sim uArch: Shader 13 bind to kernel 1 '_Z14calculate_tempiPfS_S_iiiiffffff'
GPGPU-Sim uArch: Shader 22 bind to kernel 1 '_Z14calculate_tempiPfS_S_iiiiffffff'
GPGPU-Sim uArch: Shader 24 bind to kernel 1 '_Z14calculate_tempiPfS_S_iiiiffffff'
GPGPU-Sim uArch: Shader 9 bind to kernel 1 '_Z14calculate_tempiPfS_S_iiiiffffff'
GPGPU-Sim uArch: Shader 10 bind to kernel 1 '_Z14calculate_tempiPfS_S_iiiiffffff'
GPGPU-Sim uArch: Shader 11 bind to kernel 1 '_Z14calculate_tempiPfS_S_iiiiffffff'
GPGPU-Sim uArch: Shader 12 bind to kernel 1 '_Z14calculate_tempiPfS_S_iiiiffffff'
GPGPU-Sim uArch: Shader 13 bind to kernel 1 '_Z14calculate_tempiPfS_S_iiiiffffff'
GPGPU-Sim uArch: Shader 15 bind to kernel 1 '_Z14calculate_tempiPfS_S_iiiiffffff'
GPGPU-Sim uArch: Shader 16 bind to kernel 1 '_Z14calculate_tempiPfS_S_iiiiffffff'
GPGPU-Sim uArch: Shader 18 bind to kernel 1 '_Z14calculate_tempiPfS_S_iiiiffffff'
GPGPU-Sim uArch: Shader 19 bind to kernel 1 '_Z14calculate_tempiPfS_S_iiiiffffff'
GPGPU-Sim uArch: Shader 20 bind to kernel 1 '_Z14calculate_tempiPfS_S_iiiiffffff'
GPGPU-Sim uArch: Shader 22 bind to kernel 1 '_Z14calculate_tempiPfS_S_iiiiffffff'
GPGPU-Sim uArch: Shader 24 bind to kernel 1 '_Z14calculate_tempiPfS_S_iiiiffffff'
GPGPU-Sim uArch: Shader 26 bind to kernel 1 '_Z14calculate_tempiPfS_S_iiiiffffff'
GPGPU-Sim uArch: Shader 27 bind to kernel 1 '_Z14calculate_tempiPfS_S_iiiiffffff'
GPGPU-Sim uArch: Shader 0 bind to kernel 1 '_Z14calculate_tempiPfS_S_iiiiffffff'
GPGPU-Sim uArch: Shader 1 bind to kernel 1 '_Z14calculate_tempiPfS_S_iiiiffffff'
GPGPU-Sim uArch: Shader 4 bind to kernel 1 '_Z14calculate_tempiPfS_S_iiiiffffff'
GPGPU-Sim uArch: Shader 6 bind to kernel 1 '_Z14calculate_tempiPfS_S_iiiiffffff'
GPGPU-Sim uArch: Shader 7 bind to kernel 1 '_Z14calculate_tempiPfS_S_iiiiffffff'
GPGPU-Sim uArch: Shader 9 bind to kernel 1 '_Z14calculate_tempiPfS_S_iiiiffffff'
GPGPU-Sim uArch: Shader 14 bind to kernel 1 '_Z14calculate_tempiPfS_S_iiiiffffff'
GPGPU-Sim uArch: Shader 17 bind to kernel 1 '_Z14calculate_tempiPfS_S_iiiiffffff'
GPGPU-Sim uArch: Shader 21 bind to kernel 1 '_Z14calculate_tempiPfS_S_iiiiffffff'
GPGPU-Sim uArch: Shader 23 bind to kernel 1 '_Z14calculate_tempiPfS_S_iiiiffffff'
GPGPU-Sim uArch: Shader 25 bind to kernel 1 '_Z14calculate_tempiPfS_S_iiiiffffff'
GPGPU-Sim uArch: Shader 3 bind to kernel 1 '_Z14calculate_tempiPfS_S_iiiiffffff'
GPGPU-Sim uArch: Shader 5 bind to kernel 1 '_Z14calculate_tempiPfS_S_iiiiffffff'
GPGPU-Sim uArch: Shader 7 bind to kernel 1 '_Z14calculate_tempiPfS_S_iiiiffffff'
GPGPU-Sim uArch: Shader 22 bind to kernel 1 '_Z14calculate_tempiPfS_S_iiiiffffff'
GPGPU-Sim uArch: Shader 27 bind to kernel 1 '_Z14calculate_tempiPfS_S_iiiiffffff'
GPGPU-Sim uArch: Shader 4 bind to kernel 1 '_Z14calculate_tempiPfS_S_iiiiffffff'
GPGPU-Sim uArch: Shader 5 bind to kernel 1 '_Z14calculate_tempiPfS_S_iiiiffffff'
GPGPU-Sim uArch: Shader 6 bind to kernel 1 '_Z14calculate_tempiPfS_S_iiiiffffff'
GPGPU-Sim uArch: Shader 7 bind to kernel 1 '_Z14calculate_tempiPfS_S_iiiiffffff'
GPGPU-Sim uArch: Shader 8 bind to kernel 1 '_Z14calculate_tempiPfS_S_iiiiffffff'
GPGPU-Sim uArch: Shader 9 bind to kernel 1 '_Z14calculate_tempiPfS_S_iiiiffffff'
GPGPU-Sim uArch: Shader 10 bind to kernel 1 '_Z14calculate_tempiPfS_S_iiiiffffff'
GPGPU-Sim uArch: Shader 11 bind to kernel 1 '_Z14calculate_tempiPfS_S_iiiiffffff'
GPGPU-Sim uArch: Shader 12 bind to kernel 1 '_Z14calculate_tempiPfS_S_iiiiffffff'
GPGPU-Sim uArch: Shader 13 bind to kernel 1 '_Z14calculate_tempiPfS_S_iiiiffffff'
GPGPU-Sim uArch: Shader 14 bind to kernel 1 '_Z14calculate_tempiPfS_S_iiiiffffff'
GPGPU-Sim uArch: Shader 15 bind to kernel 1 '_Z14calculate_tempiPfS_S_iiiiffffff'
GPGPU-Sim uArch: Shader 16 bind to kernel 1 '_Z14calculate_tempiPfS_S_iiiiffffff'
GPGPU-Sim uArch: Shader 17 bind to kernel 1 '_Z14calculate_tempiPfS_S_iiiiffffff'
GPGPU-Sim uArch: Shader 18 bind to kernel 1 '_Z14calculate_tempiPfS_S_iiiiffffff'
GPGPU-Sim uArch: Shader 19 bind to kernel 1 '_Z14calculate_tempiPfS_S_iiiiffffff'
GPGPU-Sim uArch: Shader 20 bind to kernel 1 '_Z14calculate_tempiPfS_S_iiiiffffff'
GPGPU-Sim uArch: Shader 21 bind to kernel 1 '_Z14calculate_tempiPfS_S_iiiiffffff'
GPGPU-Sim uArch: Shader 22 bind to kernel 1 '_Z14calculate_tempiPfS_S_iiiiffffff'
GPGPU-Sim uArch: Shader 23 bind to kernel 1 '_Z14calculate_tempiPfS_S_iiiiffffff'
GPGPU-Sim uArch: Shader 24 bind to kernel 1 '_Z14calculate_tempiPfS_S_iiiiffffff'
GPGPU-Sim uArch: Shader 25 bind to kernel 1 '_Z14calculate_tempiPfS_S_iiiiffffff'
GPGPU-Sim uArch: Shader 26 bind to kernel 1 '_Z14calculate_tempiPfS_S_iiiiffffff'
GPGPU-Sim uArch: Shader 27 bind to kernel 1 '_Z14calculate_tempiPfS_S_iiiiffffff'
GPGPU-Sim uArch: Shader 0 bind to kernel 1 '_Z14calculate_tempiPfS_S_iiiiffffff'
GPGPU-Sim uArch: Shader 1 bind to kernel 1 '_Z14calculate_tempiPfS_S_iiiiffffff'
GPGPU-Sim uArch: Shader 2 bind to kernel 1 '_Z14calculate_tempiPfS_S_iiiiffffff'
GPGPU-Sim uArch: Shader 3 bind to kernel 1 '_Z14calculate_tempiPfS_S_iiiiffffff'
Destroy streams for kernel 1: size 0
kernel_name = _Z14calculate_tempiPfS_S_iiiiffffff 
kernel_launch_uid = 1 
gpu_sim_cycle = 2007721
gpu_sim_insn = 415466464
gpu_ipc =     206.9344
gpu_tot_sim_cycle = 2229871
gpu_tot_sim_insn = 415466464
gpu_tot_ipc =     186.3186
gpu_tot_issued_cta = 7396
max_total_param_size = 0
gpu_stall_dramfull = 48764
gpu_stall_icnt2sh    = 594894
partiton_reqs_in_parallel = 44121098
partiton_reqs_in_parallel_total    = 0
partiton_level_parallism =      21.9757
partiton_level_parallism_total  =      19.7864
partiton_reqs_in_parallel_util = 44121098
partiton_reqs_in_parallel_util_total    = 0
gpu_sim_cycle_parition_util = 2007097
gpu_tot_sim_cycle_parition_util    = 0
partiton_level_parallism_util =      21.9825
partiton_level_parallism_util_total  =      21.9825
partiton_replys_in_parallel = 456444
partiton_replys_in_parallel_total    = 0
L2_BW  =      21.5486 GB/Sec
L2_BW_total  =      19.4018 GB/Sec
gpu_total_sim_rate=151243

========= Core cache stats =========
L1I_cache:
	L1I_total_cache_accesses = 7740000
	L1I_total_cache_misses = 8688
	L1I_total_cache_miss_rate = 0.0011
	L1I_total_cache_pending_hits = 0
	L1I_total_cache_reservation_fails = 6846
L1D_cache:
	L1D_cache_core[0]: Access = 0, Miss = 0, Miss_rate = -nan, Pending_hits = 0, Reservation_fails = 0
	L1D_cache_core[1]: Access = 0, Miss = 0, Miss_rate = -nan, Pending_hits = 0, Reservation_fails = 0
	L1D_cache_core[2]: Access = 0, Miss = 0, Miss_rate = -nan, Pending_hits = 0, Reservation_fails = 0
	L1D_cache_core[3]: Access = 0, Miss = 0, Miss_rate = -nan, Pending_hits = 0, Reservation_fails = 0
	L1D_cache_core[4]: Access = 0, Miss = 0, Miss_rate = -nan, Pending_hits = 0, Reservation_fails = 0
	L1D_cache_core[5]: Access = 0, Miss = 0, Miss_rate = -nan, Pending_hits = 0, Reservation_fails = 0
	L1D_cache_core[6]: Access = 0, Miss = 0, Miss_rate = -nan, Pending_hits = 0, Reservation_fails = 0
	L1D_cache_core[7]: Access = 0, Miss = 0, Miss_rate = -nan, Pending_hits = 0, Reservation_fails = 0
	L1D_cache_core[8]: Access = 0, Miss = 0, Miss_rate = -nan, Pending_hits = 0, Reservation_fails = 0
	L1D_cache_core[9]: Access = 0, Miss = 0, Miss_rate = -nan, Pending_hits = 0, Reservation_fails = 0
	L1D_cache_core[10]: Access = 0, Miss = 0, Miss_rate = -nan, Pending_hits = 0, Reservation_fails = 0
	L1D_cache_core[11]: Access = 0, Miss = 0, Miss_rate = -nan, Pending_hits = 0, Reservation_fails = 0
	L1D_cache_core[12]: Access = 0, Miss = 0, Miss_rate = -nan, Pending_hits = 0, Reservation_fails = 0
	L1D_cache_core[13]: Access = 0, Miss = 0, Miss_rate = -nan, Pending_hits = 0, Reservation_fails = 0
	L1D_cache_core[14]: Access = 0, Miss = 0, Miss_rate = -nan, Pending_hits = 0, Reservation_fails = 0
	L1D_cache_core[15]: Access = 0, Miss = 0, Miss_rate = -nan, Pending_hits = 0, Reservation_fails = 0
	L1D_cache_core[16]: Access = 0, Miss = 0, Miss_rate = -nan, Pending_hits = 0, Reservation_fails = 0
	L1D_cache_core[17]: Access = 0, Miss = 0, Miss_rate = -nan, Pending_hits = 0, Reservation_fails = 0
	L1D_cache_core[18]: Access = 0, Miss = 0, Miss_rate = -nan, Pending_hits = 0, Reservation_fails = 0
	L1D_cache_core[19]: Access = 0, Miss = 0, Miss_rate = -nan, Pending_hits = 0, Reservation_fails = 0
	L1D_cache_core[20]: Access = 0, Miss = 0, Miss_rate = -nan, Pending_hits = 0, Reservation_fails = 0
	L1D_cache_core[21]: Access = 0, Miss = 0, Miss_rate = -nan, Pending_hits = 0, Reservation_fails = 0
	L1D_cache_core[22]: Access = 0, Miss = 0, Miss_rate = -nan, Pending_hits = 0, Reservation_fails = 0
	L1D_cache_core[23]: Access = 0, Miss = 0, Miss_rate = -nan, Pending_hits = 0, Reservation_fails = 0
	L1D_cache_core[24]: Access = 0, Miss = 0, Miss_rate = -nan, Pending_hits = 0, Reservation_fails = 0
	L1D_cache_core[25]: Access = 0, Miss = 0, Miss_rate = -nan, Pending_hits = 0, Reservation_fails = 0
	L1D_cache_core[26]: Access = 0, Miss = 0, Miss_rate = -nan, Pending_hits = 0, Reservation_fails = 0
	L1D_cache_core[27]: Access = 0, Miss = 0, Miss_rate = -nan, Pending_hits = 0, Reservation_fails = 0
	L1D_total_cache_accesses = 0
	L1D_total_cache_misses = 0
	L1D_total_cache_pending_hits = 0
	L1D_total_cache_reservation_fails = 0
	L1D_cache_data_port_util = 0.000
	L1D_cache_fill_port_util = 0.000
L1C_cache:
	L1C_total_cache_accesses = 769184
	L1C_total_cache_misses = 2195
	L1C_total_cache_miss_rate = 0.0029
	L1C_total_cache_pending_hits = 0
	L1C_total_cache_reservation_fails = 4886
L1T_cache:
	L1T_total_cache_accesses = 0
	L1T_total_cache_misses = 0
	L1T_total_cache_pending_hits = 0
	L1T_total_cache_reservation_fails = 0

Total_core_cache_stats:
	Total_core_cache_stats_breakdown[GLOBAL_ACC_R][HIT] = 0
	Total_core_cache_stats_breakdown[GLOBAL_ACC_R][HIT_RESERVED] = 0
	Total_core_cache_stats_breakdown[GLOBAL_ACC_R][MISS] = 0
	Total_core_cache_stats_breakdown[GLOBAL_ACC_R][RESERVATION_FAIL] = 0
	Total_core_cache_stats_breakdown[LOCAL_ACC_R][HIT] = 0
	Total_core_cache_stats_breakdown[LOCAL_ACC_R][HIT_RESERVED] = 0
	Total_core_cache_stats_breakdown[LOCAL_ACC_R][MISS] = 0
	Total_core_cache_stats_breakdown[LOCAL_ACC_R][RESERVATION_FAIL] = 0
	Total_core_cache_stats_breakdown[CONST_ACC_R][HIT] = 766989
	Total_core_cache_stats_breakdown[CONST_ACC_R][HIT_RESERVED] = 0
	Total_core_cache_stats_breakdown[CONST_ACC_R][MISS] = 2195
	Total_core_cache_stats_breakdown[CONST_ACC_R][RESERVATION_FAIL] = 4886
	Total_core_cache_stats_breakdown[TEXTURE_ACC_R][HIT] = 0
	Total_core_cache_stats_breakdown[TEXTURE_ACC_R][HIT_RESERVED] = 0
	Total_core_cache_stats_breakdown[TEXTURE_ACC_R][MISS] = 0
	Total_core_cache_stats_breakdown[TEXTURE_ACC_R][RESERVATION_FAIL] = 0
	Total_core_cache_stats_breakdown[GLOBAL_ACC_W][HIT] = 0
	Total_core_cache_stats_breakdown[GLOBAL_ACC_W][HIT_RESERVED] = 0
	Total_core_cache_stats_breakdown[GLOBAL_ACC_W][MISS] = 0
	Total_core_cache_stats_breakdown[GLOBAL_ACC_W][RESERVATION_FAIL] = 0
	Total_core_cache_stats_breakdown[LOCAL_ACC_W][HIT] = 0
	Total_core_cache_stats_breakdown[LOCAL_ACC_W][HIT_RESERVED] = 0
	Total_core_cache_stats_breakdown[LOCAL_ACC_W][MISS] = 0
	Total_core_cache_stats_breakdown[LOCAL_ACC_W][RESERVATION_FAIL] = 0
	Total_core_cache_stats_breakdown[L1_WRBK_ACC][HIT] = 0
	Total_core_cache_stats_breakdown[L1_WRBK_ACC][HIT_RESERVED] = 0
	Total_core_cache_stats_breakdown[L1_WRBK_ACC][MISS] = 0
	Total_core_cache_stats_breakdown[L1_WRBK_ACC][RESERVATION_FAIL] = 0
	Total_core_cache_stats_breakdown[L2_WRBK_ACC][HIT] = 0
	Total_core_cache_stats_breakdown[L2_WRBK_ACC][HIT_RESERVED] = 0
	Total_core_cache_stats_breakdown[L2_WRBK_ACC][MISS] = 0
	Total_core_cache_stats_breakdown[L2_WRBK_ACC][RESERVATION_FAIL] = 0
	Total_core_cache_stats_breakdown[INST_ACC_R][HIT] = 7731312
	Total_core_cache_stats_breakdown[INST_ACC_R][HIT_RESERVED] = 0
	Total_core_cache_stats_breakdown[INST_ACC_R][MISS] = 8688
	Total_core_cache_stats_breakdown[INST_ACC_R][RESERVATION_FAIL] = 6846
	Total_core_cache_stats_breakdown[L1_WR_ALLOC_R][HIT] = 0
	Total_core_cache_stats_breakdown[L1_WR_ALLOC_R][HIT_RESERVED] = 0
	Total_core_cache_stats_breakdown[L1_WR_ALLOC_R][MISS] = 0
	Total_core_cache_stats_breakdown[L1_WR_ALLOC_R][RESERVATION_FAIL] = 0
	Total_core_cache_stats_breakdown[L2_WR_ALLOC_R][HIT] = 0
	Total_core_cache_stats_breakdown[L2_WR_ALLOC_R][HIT_RESERVED] = 0
	Total_core_cache_stats_breakdown[L2_WR_ALLOC_R][MISS] = 0
	Total_core_cache_stats_breakdown[L2_WR_ALLOC_R][RESERVATION_FAIL] = 0
	Total_core_cache_stats_breakdown[CONST_ACC_R][TOTAL_ACCESS] = 769184
	Total_core_cache_stats_breakdown[INST_ACC_R][TOTAL_ACCESS] = 7740000
Shader 0 warp_id issue ditsribution:
warp_id:
0, 1, 2, 3, 4, 5, 6, 7, 8, 9, 10, 11, 12, 13, 14, 15, 16, 17, 18, 19, 20, 21, 22, 23, 24, 25, 26, 27, 28, 29, 30, 31, 32, 33, 34, 35, 36, 37, 38, 39, 40, 41, 42, 43, 44, 45, 46, 47, 48, 49, 50, 51, 52, 53, 54, 55, 
distro:
10231, 12902, 12923, 12730, 12778, 12731, 12771, 10257, 9723, 12265, 12289, 12252, 12289, 12244, 12289, 9824, 9485, 11967, 11993, 11814, 11844, 11810, 11839, 9502, 9301, 11633, 11655, 11634, 11652, 11626, 11655, 9332, 9553, 11949, 11977, 11792, 11828, 11789, 11828, 9495, 9059, 11314, 11346, 11312, 11346, 11305, 11345, 9075, 9054, 11322, 11340, 11302, 11334, 11302, 11336, 9071, 
gpgpu_n_tot_thrd_icount = 485326208
gpgpu_n_tot_w_icount = 15166444
gpgpu_n_stall_shd_mem = 392686
gpgpu_n_mem_read_local = 0
gpgpu_n_mem_write_local = 0
gpgpu_n_mem_read_global = 346456
gpgpu_n_mem_write_global = 109568
gpgpu_n_mem_texture = 0
gpgpu_n_mem_const = 56
gpgpu_n_load_insn  = 3720992
gpgpu_n_store_insn = 1048576
gpgpu_n_shmem_insn = 24940324
gpgpu_n_tex_insn = 0
gpgpu_n_const_mem_insn = 0
gpgpu_n_param_mem_insn = 24613888
gpgpu_n_shmem_bkconflict = 0
gpgpu_n_cache_bkconflict = 0
gpgpu_n_intrawarp_mshr_merge = 0
gpgpu_n_cmem_portconflict = 4886
gpgpu_stall_shd_mem[c_mem][bk_conf] = 4886
gpgpu_stall_shd_mem[c_mem][mshr_rc] = 0
gpgpu_stall_shd_mem[c_mem][icnt_rc] = 0
gpgpu_stall_shd_mem[c_mem][data_port_stall] = 0
gpgpu_stall_shd_mem[t_mem][mshr_rc] = 0
gpgpu_stall_shd_mem[t_mem][icnt_rc] = 0
gpgpu_stall_shd_mem[t_mem][data_port_stall] = 0
gpgpu_stall_shd_mem[s_mem][bk_conf] = 0
gpgpu_stall_shd_mem[gl_mem][bk_conf] = 0
gpgpu_stall_shd_mem[gl_mem][coal_stall] = 321053
gpgpu_stall_shd_mem[gl_mem][data_port_stall] = 0
gpgpu_stall_shd_mem[g_mem_ld][mshr_rc] = 0
gpgpu_stall_shd_mem[g_mem_ld][icnt_rc] = 66747
gpgpu_stall_shd_mem[g_mem_ld][wb_icnt_rc] = 0
gpgpu_stall_shd_mem[g_mem_ld][wb_rsrv_fail] = 0
gpgpu_stall_shd_mem[g_mem_st][mshr_rc] = 0
gpgpu_stall_shd_mem[g_mem_st][icnt_rc] = 0
gpgpu_stall_shd_mem[g_mem_st][wb_icnt_rc] = 0
gpgpu_stall_shd_mem[g_mem_st][wb_rsrv_fail] = 0
gpgpu_stall_shd_mem[l_mem_ld][mshr_rc] = 0
gpgpu_stall_shd_mem[l_mem_ld][icnt_rc] = 0
gpgpu_stall_shd_mem[l_mem_ld][wb_icnt_rc] = 0
gpgpu_stall_shd_mem[l_mem_ld][wb_rsrv_fail] = 0
gpgpu_stall_shd_mem[l_mem_st][mshr_rc] = 0
gpgpu_stall_shd_mem[l_mem_st][icnt_rc] = 0
gpgpu_stall_shd_mem[l_mem_ld][wb_icnt_rc] = 0
gpgpu_stall_shd_mem[l_mem_ld][wb_rsrv_fail] = 0
gpu_reg_bank_conflict_stalls = 0
Warp Occupancy Distribution:
Stall:533984	W0_Idle:44800311	W0_Scoreboard:54341201	W1:0	W2:0	W3:0	W4:0	W5:8500	W6:0	W7:0	W8:28160	W9:0	W10:25600	W11:0	W12:12958	W13:8500	W14:714000	W15:0	W16:0	W17:0	W18:0	W19:0	W20:0	W21:0	W22:0	W23:0	W24:3517792	W25:0	W26:25600	W27:0	W28:3287550	W29:0	W30:0	W31:0	W32:7537784
traffic_breakdown_coretomem[CONST_ACC_R] = 448 {8:56,}
traffic_breakdown_coretomem[GLOBAL_ACC_R] = 2771648 {8:346456,}
traffic_breakdown_coretomem[GLOBAL_ACC_W] = 7856128 {40:44032,72:44032,136:21504,}
traffic_breakdown_coretomem[INST_ACC_R] = 2912 {8:364,}
traffic_breakdown_memtocore[CONST_ACC_R] = 4032 {72:56,}
traffic_breakdown_memtocore[GLOBAL_ACC_R] = 28785856 {40:114576,72:114576,136:117304,}
traffic_breakdown_memtocore[GLOBAL_ACC_W] = 876544 {8:109568,}
traffic_breakdown_memtocore[INST_ACC_R] = 49504 {136:364,}
maxmrqlatency = 692 
maxdqlatency = 0 
maxmflatency = 243881 
averagemflatency = 4785 
max_icnt2mem_latency = 243557 
max_icnt2sh_latency = 2229870 
mrq_lat_table:109418 	5957 	6074 	11929 	13106 	12408 	10372 	10063 	9990 	182 	0 	0 	0 	0 	0 	0 	0 	0 	0 	0 	0 	0 	0 	0 	0 	0 	0 	0 	0 	0 	0 	0 	
dq_lat_table:0 	0 	0 	0 	0 	0 	0 	0 	0 	0 	0 	0 	0 	0 	0 	0 	0 	0 	0 	0 	0 	0 	0 	0 	0 	0 	0 	0 	0 	0 	0 	0 	
mf_lat_table:0 	0 	0 	0 	0 	0 	0 	274603 	135787 	3494 	246 	2754 	1525 	3645 	8143 	19070 	5210 	1603 	0 	0 	0 	0 	0 	0 	0 	0 	0 	0 	0 	0 	0 	0 	
icnt2mem_lat_table:0 	0 	230653 	46839 	5027 	1272 	121715 	8531 	215 	1 	482 	2513 	1529 	3754 	8637 	18463 	5210 	1603 	0 	0 	0 	0 	0 	0 	
icnt2sh_lat_table:0 	0 	104472 	151080 	84038 	6857 	65 	0 	0 	0 	0 	0 	0 	0 	0 	0 	0 	0 	12840 	14659 	61097 	20972 	0 	0 	
mf_lat_pw_table:0 	0 	0 	0 	0 	0 	0 	377 	78 	3 	3 	16 	6 	12 	22 	30 	11 	5 	0 	0 	0 	0 	0 	0 	0 	0 	0 	0 	0 	0 	0 	0 	
maximum concurrent accesses to same row:
dram[0]:        69        70        69        70        66        67        69        70        69        70        69        70        68        66        69        70 
dram[1]:        69        70        69        70        66        63        69        70        69        70        69        70        68        65        69        70 
dram[2]:        69        70        69        70        65        65        69        70        69        70        69        70        66        66        69        70 
dram[3]:        69        70        69        70        67        63        69        70        69        70        69        70        64        66        69        70 
dram[4]:        69        70        69        70        65        66        69        70        69        70        69        70        66        65        69        70 
dram[5]:        69        70        69        70        63        66        69        70        69        70        69        70        67        69        69        70 
dram[6]:        69        70        69        70        68        64        69        70        69        70        69        70        69        66        69        70 
dram[7]:        69        70        69        70        64        65        69        70        69        70        69        70        66        66        69        70 
dram[8]:        69        70        69        70        66        64        69        70        69        70        69        70        65        66        69        70 
dram[9]:        69        70        69        70        67        63        69        70        69        70        69        70        64        66        69        70 
dram[10]:        69        70        69        70        64        67        69        70        69        70        69        70        67        66        69        70 
maximum service time to same row:
dram[0]:    254817    255043    377410    377635    256635    256501    418020    418011    377430    377334    376792    254577    249421    249396    248351    248426 
dram[1]:    254864    255199    377600    377601    376111    375877    418084    418073    377548    377494    254786    254981    249370    249380    248362    248195 
dram[2]:    254945    255280    377416    377386    375191    375216    417989    417987    377556    377419    254909    255022    249389    249509    248288    247786 
dram[3]:    254975    254926    377382    377299    256386    256693    418032    418011    377310    377428    254996    254959    249389    249402    248711    248900 
dram[4]:    254950    255089    377250    377588    256542    256699    418005    417761    377542    377553    254988    254758    249419    249384    248839    248937 
dram[5]:    254817    255044    377494    377495    256636    256483    417862    418134    377452    377398    254750    254642    249419    249395    248507    248571 
dram[6]:    254865    255199    377418    377415    376113    375762    418026    417972    377430    377400    376319    254788    249369    249382    248506    248340 
dram[7]:    253463    255282    377375    377274    375860    375877    417919    418072    377446    377268    254928    254985    249395    249487    248280    247779 
dram[8]:    254962    254968    377251    377169    256532    256576    418074    417986    377329    377370    255005    255009    249373    249404    248853    248993 
dram[9]:    254947    254935    377252    377592    256425    256563    418018    417704    377284    377301    254978    254967    249326    249379    248904    248875 
dram[10]:    258064    258225    377499    377495    256823    256448    417847    418134    377262    377270    254800    254742    249371    249376    248777    248903 
average row accesses per activate:
dram[0]: 11.417583 11.107527 10.245098  9.675926 10.346535 10.968421 10.784314 10.324074 11.039604 10.825243 11.468750 10.055046 11.071428 11.183674 14.280000 13.000000 
dram[1]: 12.011495 11.483517 10.360000 11.063829 12.590362 11.417583 11.120000 10.027273 11.652632 11.567010 11.515789 11.090909 11.612904 11.912087 15.485714 14.259740 
dram[2]: 12.506024 11.988505 11.106383 11.085107 11.362638 11.461538 11.040000 11.924731 11.131313 11.913979 12.870588 11.924731 12.674418 12.318182 16.223881 15.478873 
dram[3]: 13.324676 13.906667 10.591837 11.250000 12.506024 11.247312 12.790698 12.568182 11.715790 12.758620 13.083333 13.168674 12.318182 12.928572 14.904110 14.863013 
dram[4]: 12.397591 12.573171  9.657408  9.858491 11.483517 12.126437 12.144444 11.755320 11.432990 11.282828 11.849463 12.076923 13.432098 11.836957 16.575758 13.825000 
dram[5]: 11.010638 11.195652  9.820755  9.601851  9.914286 10.184466 10.696078 10.471698 10.776699 10.373832 10.754902 11.515789 12.179775 10.950000 12.340909 12.720930 
dram[6]: 12.139535 11.031915 11.761364 11.840909 11.842696 10.097087 11.255102 10.500000 11.285714 11.819149 12.813953 11.278351 11.400000 11.680851 14.621622 13.725000 
dram[7]: 13.506494 12.743902 12.634147 12.634147 10.680412 11.225806 12.579545 12.208791 11.329897 12.010753 13.120481 12.568182 11.857142 11.591398 14.466666 15.068493 
dram[8]: 13.151898 12.022988 11.228261 12.046512 11.741573 11.010527 12.359550 12.164835 11.484536 11.453609 13.341463 14.166667 11.061225 12.581395 15.352113 14.064102 
dram[9]: 13.050632 12.802469 10.186275  9.509091 10.804124 11.322580 12.211111 12.266666 12.010753 12.606742 13.456790 12.655172 12.066667 12.022223 15.111111 13.130953 
dram[10]: 12.285714 11.965117 10.215686 10.067307 10.762887 10.656566 11.670213 10.803922 11.070000 10.901960 12.000000 11.648936 12.044444 11.343750 12.976191 12.988235 
average row locality = 189499/16026 = 11.824472
number of total memory accesses made:
dram[0]:         0         0         0         0         0         0         0         0         0         0         0         0         0         0         0         0 
dram[1]:         0         0         0         0         0         0         0         0         0         0         0         0         0         0         0         0 
dram[2]:         0         0         0         0         0         0         0         0         0         0         0         0         0         0         0         0 
dram[3]:         0         0         0         0         0         0         0         0         0         0         0         0         0         0         0         0 
dram[4]:         0         0         0         0         0         0         0         0         0         0         0         0         0         0         0         0 
dram[5]:         0         0         0         0         0         0         0         0         0         0         0         0         0         0         0         0 
dram[6]:         0         0         0         0         0         0         0         0         0         0         0         0         0         0         0         0 
dram[7]:         0         0         0         0         0         0         0         0         0         0         0         0         0         0         0         0 
dram[8]:         0         0         0         0         0         0         0         0         0         0         0         0         0         0         0         0 
dram[9]:         0         0         0         0         0         0         0         0         0         0         0         0         0         0         0         0 
dram[10]:         0         0         0         0         0         0         0         0         0         0         0         0         0         0         0         0 
total accesses: 0
min_bank_accesses = 0!
min_chip_accesses = 0!
number of total read accesses:
dram[0]:       561       560       560       560       560       560       560       560       560       560       548       548       560       560       560       560 
dram[1]:       560       560       560       560       560       560       560       560       560       560       549       549       560       560       560       560 
dram[2]:       560       560       560       560       560       560       560       560       560       560       549       549       560       560       560       560 
dram[3]:       560       560       560       560       560       560       560       560       560       560       549       549       560       560       560       560 
dram[4]:       560       560       560       560       560       560       560       560       560       560       549       549       560       560       561       561 
dram[5]:       560       560       560       560       560       560       560       560       560       560       548       548       560       560       561       561 
dram[6]:       560       560       560       560       560       560       560       560       560       560       548       548       560       560       561       561 
dram[7]:       560       560       560       560       560       560       560       560       560       560       548       548       560       560       561       561 
dram[8]:       560       560       560       560       560       560       560       560       560       560       548       548       560       560       561       561 
dram[9]:       560       560       560       560       560       560       560       560       560       560       548       548       560       560       561       561 
dram[10]:       560       560       560       560       560       560       560       560       560       560       548       548       560       560       561       560 
total reads: 98318
bank skew: 561/548 = 1.02
chip skew: 8940/8937 = 1.00
number of total write accesses:
dram[0]:       478       473       485       485       485       482       540       555       555       555       553       548       525       536       511       532 
dram[1]:       485       485       476       480       485       479       552       543       547       562       545       549       520       524       524       538 
dram[2]:       478       483       484       482       474       483       544       549       542       548       545       560       530       524       527       539 
dram[3]:       466       483       478       475       478       486       540       546       553       550       550       544       524       526       528       525 
dram[4]:       469       471       483       485       485       495       533       545       549       557       553       550       528       529       533       545 
dram[5]:       475       470       481       477       481       489       531       550       550       550       549       546       524       535       525       533 
dram[6]:       484       477       475       482       494       480       543       553       546       551       554       546       523       538       521       537 
dram[7]:       480       485       476       476       476       484       547       551       539       557       541       558       519       518       524       539 
dram[8]:       479       486       473       476       485       486       540       547       554       551       546       557       524       522       529       536 
dram[9]:       471       477       479       486       488       493       539       544       557       562       542       553       526       522       527       542 
dram[10]:       472       469       482       487       484       495       537       542       547       552       556       547       524       529       529       544 
total reads: 91181
bank skew: 562/466 = 1.21
chip skew: 8310/8252 = 1.01
average mf latency per bank:
dram[0]:      12932     12659     15530     15654     13507     13131     12225     12350      7059      6917      8445      8480      7835      8280     14896     14664
dram[1]:      13283     13280     15390     15237     13487     13453     12372     12614      7162      6964      8645      8595      7867      7823     15099     15210
dram[2]:      13214     13141     15155     15261     13354     13360     12577     12608      6999      6621      8699      8527      8031      8065     15048     14797
dram[3]:      13659     12984     15002     15272     13556     13022     12401     12275      7008      6808      8614      8653      7942      8040     14724     14719
dram[4]:      13829     14057     14477     14346     13938     13893     12191     12000      7043      6805      8283      7963      7985      7832     14307     14262
dram[5]:      13927     13965     14751     14507     14108     13865     11884     11888      7243      7127      7730      7767      8142      8506     14220     14273
dram[6]:      13796     13450     14766     14923     13994     13671     12054     12182      7382      7167      8608      8868      7957      7984     15039     15192
dram[7]:      13450     13523     15059     15061     13915     13972     12758     13028      7172      6716      8959      8728      8026      7947     15093     14832
dram[8]:      13591     13197     15251     15392     13576     13402     12880     12647      6742      6501      8470      8340      7918      7993     14704     14732
dram[9]:      13955     13825     14684     14820     13274     12752     12082     11865      6875      6630      8546      8464      7839      7827     15206     15208
dram[10]:      13355     13341     15104     14586     13294     13610     11928     12031      6946      6782      8499      8496      7830      7906     14910     14775
maximum mf latency per bank:
dram[0]:     143868    143986    161233    161214    124157    124372    123758    123719    123046    122891    124040    124039    133618    133429    243814    243834
dram[1]:     146458    146410    161218    161168    124378    124504    123748    123755    122986    123019    124041    124040    133643    133775    243800    243829
dram[2]:     146411    146378    124603    124610    124474    124367    123755    123764    123015    122995    124042    124043    133770    133455    243808    243831
dram[3]:     143709    143614    124582    124595    124353    124372    123760    123737    123069    123072    124042    124037    133367    133346    243807    243881
dram[4]:     143962    143959    124541    124559    124313    124414    123744    123755    123051    123004    124037    124047    133461    133387    243809    143809
dram[5]:     144037    143871    161221    161134    124214    124473    123562    123729    123015    122923    124039    124039    133761    133765    144111    144115
dram[6]:     146464    146452    161153    161117    124374    124506    123731    123756    123043    123003    124041    124053    133595    133468    144069    144072
dram[7]:     146456    146417    124560    124592    124405    124448    123783    124042    122982    123015    124045    124040    133713    133908    144032    144149
dram[8]:     146401    146372    124581    124582    124533    124349    123813    123828    123011    123071    124047    124047    133909    133690    144165    143975
dram[9]:     143955    143964    124529    124579    124404    124306    123724    123734    123050    122978    124042    124051    133495    133454    243764    243774
dram[10]:     144071    143872    161222    161138    124194    124305    123741    123799    123024    122964    124040    124041    133742    133745    243797    243810
Memory Partition 0: 
Cache L2_bank_000:
MSHR contents

Cache L2_bank_001:
MSHR contents

In Dram Latency Queue (total = 0): 
DRAM[0]: 16 bks, busW=4 BL=8 CL=12, tRRD=2 tCCD=6, tRCD=12 tRAS=28 tRP=12 tRC=40
n_cmd=3728042 n_nop=3669764 n_act=1565 n_pre=1549 n_req=17235 n_rd=35748 n_write=19416 bw_util=0.02959
n_activity=191504 dram_eff=0.5761
bk0: 2244a 3707158i bk1: 2240a 3705635i bk2: 2240a 3706234i bk3: 2240a 3705090i bk4: 2240a 3706956i bk5: 2240a 3705415i bk6: 2240a 3704989i bk7: 2240a 3704932i bk8: 2240a 3704856i bk9: 2240a 3703323i bk10: 2192a 3705226i bk11: 2192a 3703418i bk12: 2240a 3706435i bk13: 2240a 3705454i bk14: 2240a 3705994i bk15: 2240a 3704394i 
dram_util_bins: 0 0 0 0 0 0 0 0 0 0
dram_eff_bins: 0 0 0 0 0 0 0 0 0 0
mrqq: max=64 avg=0.338301
Memory Partition 1: 
Cache L2_bank_002:
MSHR contents

Cache L2_bank_003:
MSHR contents

In Dram Latency Queue (total = 0): 
DRAM[1]: 16 bks, busW=4 BL=8 CL=12, tRRD=2 tCCD=6, tRCD=12 tRAS=28 tRP=12 tRC=40
n_cmd=3728042 n_nop=3670005 n_act=1473 n_pre=1457 n_req=17232 n_rd=35752 n_write=19355 bw_util=0.02956
n_activity=191315 dram_eff=0.5761
bk0: 2240a 3707458i bk1: 2240a 3705660i bk2: 2240a 3707101i bk3: 2240a 3705958i bk4: 2240a 3707376i bk5: 2240a 3706334i bk6: 2240a 3706367i bk7: 2240a 3705308i bk8: 2240a 3705044i bk9: 2240a 3703818i bk10: 2196a 3705865i bk11: 2196a 3704495i bk12: 2240a 3706473i bk13: 2240a 3705364i bk14: 2240a 3706237i bk15: 2240a 3704579i 
dram_util_bins: 0 0 0 0 0 0 0 0 0 0
dram_eff_bins: 0 0 0 0 0 0 0 0 0 0
mrqq: max=64 avg=0.3332
Memory Partition 2: 
Cache L2_bank_004:
MSHR contents

Cache L2_bank_005:
MSHR contents

In Dram Latency Queue (total = 0): 
DRAM[2]: 16 bks, busW=4 BL=8 CL=12, tRRD=2 tCCD=6, tRCD=12 tRAS=28 tRP=12 tRC=40
n_cmd=3728042 n_nop=3670059 n_act=1415 n_pre=1399 n_req=17230 n_rd=35752 n_write=19417 bw_util=0.0296
n_activity=190509 dram_eff=0.5792
bk0: 2240a 3708260i bk1: 2240a 3706052i bk2: 2240a 3707175i bk3: 2240a 3706313i bk4: 2240a 3707154i bk5: 2240a 3706501i bk6: 2240a 3706617i bk7: 2240a 3706286i bk8: 2240a 3705331i bk9: 2240a 3704650i bk10: 2196a 3705843i bk11: 2196a 3704508i bk12: 2240a 3705805i bk13: 2240a 3704768i bk14: 2240a 3706273i bk15: 2240a 3705422i 
dram_util_bins: 0 0 0 0 0 0 0 0 0 0
dram_eff_bins: 0 0 0 0 0 0 0 0 0 0
mrqq: max=64 avg=0.329345
Memory Partition 3: 
Cache L2_bank_006:
MSHR contents

Cache L2_bank_007:
MSHR contents

In Dram Latency Queue (total = 0): 
DRAM[3]: 16 bks, busW=4 BL=8 CL=12, tRRD=2 tCCD=6, tRCD=12 tRAS=28 tRP=12 tRC=40
n_cmd=3728042 n_nop=3670229 n_act=1359 n_pre=1343 n_req=17190 n_rd=35752 n_write=19359 bw_util=0.02957
n_activity=191242 dram_eff=0.5763
bk0: 2240a 3708025i bk1: 2240a 3706886i bk2: 2240a 3707313i bk3: 2240a 3706864i bk4: 2240a 3707616i bk5: 2240a 3706938i bk6: 2240a 3706572i bk7: 2240a 3706024i bk8: 2240a 3704661i bk9: 2240a 3703887i bk10: 2196a 3705544i bk11: 2196a 3704858i bk12: 2240a 3706009i bk13: 2240a 3705416i bk14: 2240a 3707058i bk15: 2240a 3705096i 
dram_util_bins: 0 0 0 0 0 0 0 0 0 0
dram_eff_bins: 0 0 0 0 0 0 0 0 0 0
mrqq: max=64 avg=0.32685
Memory Partition 4: 
Cache L2_bank_008:
MSHR contents

Cache L2_bank_009:
MSHR contents

In Dram Latency Queue (total = 0): 
DRAM[4]: 16 bks, busW=4 BL=8 CL=12, tRRD=2 tCCD=6, tRCD=12 tRAS=28 tRP=12 tRC=40
n_cmd=3728042 n_nop=3669975 n_act=1440 n_pre=1424 n_req=17250 n_rd=35760 n_write=19443 bw_util=0.02962
n_activity=190815 dram_eff=0.5786
bk0: 2240a 3707302i bk1: 2240a 3706093i bk2: 2240a 3706940i bk3: 2240a 3706157i bk4: 2240a 3707741i bk5: 2240a 3706546i bk6: 2240a 3706920i bk7: 2240a 3705286i bk8: 2240a 3705058i bk9: 2240a 3703883i bk10: 2196a 3704603i bk11: 2196a 3703475i bk12: 2240a 3706995i bk13: 2240a 3705469i bk14: 2244a 3706681i bk15: 2244a 3704731i 
dram_util_bins: 0 0 0 0 0 0 0 0 0 0
dram_eff_bins: 0 0 0 0 0 0 0 0 0 0
mrqq: max=64 avg=0.331705
Memory Partition 5: 
Cache L2_bank_010:
MSHR contents

Cache L2_bank_011:
MSHR contents

In Dram Latency Queue (total = 0): 
DRAM[5]: 16 bks, busW=4 BL=8 CL=12, tRRD=2 tCCD=6, tRCD=12 tRAS=28 tRP=12 tRC=40
n_cmd=3728042 n_nop=3669761 n_act=1586 n_pre=1570 n_req=17204 n_rd=35752 n_write=19373 bw_util=0.02957
n_activity=192217 dram_eff=0.5736
bk0: 2240a 3706515i bk1: 2240a 3706548i bk2: 2240a 3707047i bk3: 2240a 3706124i bk4: 2240a 3706452i bk5: 2240a 3705627i bk6: 2240a 3706011i bk7: 2240a 3705212i bk8: 2240a 3704777i bk9: 2240a 3703668i bk10: 2192a 3705834i bk11: 2192a 3704839i bk12: 2240a 3706177i bk13: 2240a 3704542i bk14: 2244a 3705574i bk15: 2244a 3704585i 
dram_util_bins: 0 0 0 0 0 0 0 0 0 0
dram_eff_bins: 0 0 0 0 0 0 0 0 0 0
mrqq: max=64 avg=0.328171
Memory Partition 6: 
Cache L2_bank_012:
MSHR contents

Cache L2_bank_013:
MSHR contents

In Dram Latency Queue (total = 0): 
DRAM[6]: 16 bks, busW=4 BL=8 CL=12, tRRD=2 tCCD=6, tRCD=12 tRAS=28 tRP=12 tRC=40
n_cmd=3728042 n_nop=3669987 n_act=1470 n_pre=1454 n_req=17242 n_rd=35752 n_write=19379 bw_util=0.02958
n_activity=190617 dram_eff=0.5784
bk0: 2240a 3707083i bk1: 2240a 3706458i bk2: 2240a 3707696i bk3: 2240a 3706471i bk4: 2240a 3706183i bk5: 2240a 3705202i bk6: 2240a 3705873i bk7: 2240a 3705119i bk8: 2240a 3705244i bk9: 2240a 3703493i bk10: 2192a 3705768i bk11: 2192a 3705150i bk12: 2240a 3706248i bk13: 2240a 3704965i bk14: 2244a 3706004i bk15: 2244a 3704701i 
dram_util_bins: 0 0 0 0 0 0 0 0 0 0
dram_eff_bins: 0 0 0 0 0 0 0 0 0 0
mrqq: max=64 avg=0.332346
Memory Partition 7: 
Cache L2_bank_014:
MSHR contents

Cache L2_bank_015:
MSHR contents

In Dram Latency Queue (total = 0): 
DRAM[7]: 16 bks, busW=4 BL=8 CL=12, tRRD=2 tCCD=6, tRCD=12 tRAS=28 tRP=12 tRC=40
n_cmd=3728042 n_nop=3670218 n_act=1385 n_pre=1369 n_req=17208 n_rd=35752 n_write=19318 bw_util=0.02954
n_activity=190786 dram_eff=0.5773
bk0: 2240a 3708422i bk1: 2240a 3706812i bk2: 2240a 3707516i bk3: 2240a 3706811i bk4: 2240a 3707183i bk5: 2240a 3706537i bk6: 2240a 3706677i bk7: 2240a 3706289i bk8: 2240a 3705133i bk9: 2240a 3704205i bk10: 2192a 3705997i bk11: 2192a 3704442i bk12: 2240a 3706434i bk13: 2240a 3705329i bk14: 2244a 3705954i bk15: 2244a 3704852i 
dram_util_bins: 0 0 0 0 0 0 0 0 0 0
dram_eff_bins: 0 0 0 0 0 0 0 0 0 0
mrqq: max=64 avg=0.32859
Memory Partition 8: 
Cache L2_bank_016:
MSHR contents

Cache L2_bank_017:
MSHR contents

In Dram Latency Queue (total = 0): 
DRAM[8]: 16 bks, busW=4 BL=8 CL=12, tRRD=2 tCCD=6, tRCD=12 tRAS=28 tRP=12 tRC=40
n_cmd=3728042 n_nop=3670066 n_act=1395 n_pre=1379 n_req=17229 n_rd=35752 n_write=19450 bw_util=0.02961
n_activity=191533 dram_eff=0.5764
bk0: 2240a 3708372i bk1: 2240a 3706448i bk2: 2240a 3707563i bk3: 2240a 3707022i bk4: 2240a 3707627i bk5: 2240a 3706401i bk6: 2240a 3706360i bk7: 2240a 3706141i bk8: 2240a 3704679i bk9: 2240a 3704068i bk10: 2192a 3705780i bk11: 2192a 3704855i bk12: 2240a 3705949i bk13: 2240a 3706066i bk14: 2244a 3706488i bk15: 2244a 3705154i 
dram_util_bins: 0 0 0 0 0 0 0 0 0 0
dram_eff_bins: 0 0 0 0 0 0 0 0 0 0
mrqq: max=64 avg=0.32632
Memory Partition 9: 
Cache L2_bank_018:
MSHR contents

Cache L2_bank_019:
MSHR contents

In Dram Latency Queue (total = 0): 
DRAM[9]: 16 bks, busW=4 BL=8 CL=12, tRRD=2 tCCD=6, tRCD=12 tRAS=28 tRP=12 tRC=40
n_cmd=3728042 n_nop=3669995 n_act=1428 n_pre=1412 n_req=17246 n_rd=35752 n_write=19455 bw_util=0.02962
n_activity=192092 dram_eff=0.5748
bk0: 2240a 3708176i bk1: 2240a 3707377i bk2: 2240a 3707368i bk3: 2240a 3706502i bk4: 2240a 3707254i bk5: 2240a 3706282i bk6: 2240a 3706266i bk7: 2240a 3706236i bk8: 2240a 3705973i bk9: 2240a 3704531i bk10: 2192a 3706335i bk11: 2192a 3704398i bk12: 2240a 3706276i bk13: 2240a 3705538i bk14: 2244a 3706215i bk15: 2244a 3704679i 
dram_util_bins: 0 0 0 0 0 0 0 0 0 0
dram_eff_bins: 0 0 0 0 0 0 0 0 0 0
mrqq: max=64 avg=0.328062
Memory Partition 10: 
Cache L2_bank_020:
MSHR contents

Cache L2_bank_021:
MSHR contents

In Dram Latency Queue (total = 0): 
DRAM[10]: 16 bks, busW=4 BL=8 CL=12, tRRD=2 tCCD=6, tRCD=12 tRAS=28 tRP=12 tRC=40
n_cmd=3728042 n_nop=3669850 n_act=1511 n_pre=1495 n_req=17233 n_rd=35748 n_write=19438 bw_util=0.02961
n_activity=191271 dram_eff=0.577
bk0: 2240a 3707316i bk1: 2240a 3705599i bk2: 2240a 3706944i bk3: 2240a 3705508i bk4: 2240a 3707166i bk5: 2240a 3705895i bk6: 2240a 3706366i bk7: 2240a 3705183i bk8: 2240a 3705283i bk9: 2240a 3703451i bk10: 2192a 3704560i bk11: 2192a 3704602i bk12: 2240a 3706498i bk13: 2240a 3704550i bk14: 2244a 3705329i bk15: 2240a 3704440i 
dram_util_bins: 0 0 0 0 0 0 0 0 0 0
dram_eff_bins: 0 0 0 0 0 0 0 0 0 0
mrqq: max=64 avg=0.332362

========= L2 cache stats =========
L2_cache_bank[0]: Access = 20620, Miss = 4469, Miss_rate = 0.217, Pending_hits = 7240, Reservation_fails = 8
L2_cache_bank[1]: Access = 20905, Miss = 4468, Miss_rate = 0.214, Pending_hits = 7392, Reservation_fails = 11
L2_cache_bank[2]: Access = 20570, Miss = 4469, Miss_rate = 0.217, Pending_hits = 7189, Reservation_fails = 4
L2_cache_bank[3]: Access = 20910, Miss = 4469, Miss_rate = 0.214, Pending_hits = 7335, Reservation_fails = 3
L2_cache_bank[4]: Access = 20562, Miss = 4469, Miss_rate = 0.217, Pending_hits = 7158, Reservation_fails = 8
L2_cache_bank[5]: Access = 20901, Miss = 4469, Miss_rate = 0.214, Pending_hits = 7355, Reservation_fails = 8
L2_cache_bank[6]: Access = 20556, Miss = 4469, Miss_rate = 0.217, Pending_hits = 7183, Reservation_fails = 9
L2_cache_bank[7]: Access = 20897, Miss = 4469, Miss_rate = 0.214, Pending_hits = 7338, Reservation_fails = 7
L2_cache_bank[8]: Access = 20582, Miss = 4470, Miss_rate = 0.217, Pending_hits = 7248, Reservation_fails = 7
L2_cache_bank[9]: Access = 20926, Miss = 4470, Miss_rate = 0.214, Pending_hits = 7356, Reservation_fails = 4
L2_cache_bank[10]: Access = 20583, Miss = 4469, Miss_rate = 0.217, Pending_hits = 7234, Reservation_fails = 10
L2_cache_bank[11]: Access = 20925, Miss = 4469, Miss_rate = 0.214, Pending_hits = 7402, Reservation_fails = 10
L2_cache_bank[12]: Access = 20590, Miss = 4469, Miss_rate = 0.217, Pending_hits = 7279, Reservation_fails = 8
L2_cache_bank[13]: Access = 20929, Miss = 4469, Miss_rate = 0.214, Pending_hits = 7417, Reservation_fails = 10
L2_cache_bank[14]: Access = 20586, Miss = 4469, Miss_rate = 0.217, Pending_hits = 7146, Reservation_fails = 12
L2_cache_bank[15]: Access = 20925, Miss = 4469, Miss_rate = 0.214, Pending_hits = 7345, Reservation_fails = 8
L2_cache_bank[16]: Access = 20580, Miss = 4469, Miss_rate = 0.217, Pending_hits = 7158, Reservation_fails = 8
L2_cache_bank[17]: Access = 20920, Miss = 4469, Miss_rate = 0.214, Pending_hits = 7447, Reservation_fails = 15
L2_cache_bank[18]: Access = 20578, Miss = 4469, Miss_rate = 0.217, Pending_hits = 7245, Reservation_fails = 11
L2_cache_bank[19]: Access = 20921, Miss = 4469, Miss_rate = 0.214, Pending_hits = 7345, Reservation_fails = 4
L2_cache_bank[20]: Access = 20581, Miss = 4469, Miss_rate = 0.217, Pending_hits = 7237, Reservation_fails = 5
L2_cache_bank[21]: Access = 20897, Miss = 4468, Miss_rate = 0.214, Pending_hits = 7313, Reservation_fails = 8
L2_total_cache_accesses = 456444
L2_total_cache_misses = 98318
L2_total_cache_miss_rate = 0.2154
L2_total_cache_pending_hits = 160362
L2_total_cache_reservation_fails = 178
L2_total_cache_breakdown:
	L2_cache_stats_breakdown[GLOBAL_ACC_R][HIT] = 165335
	L2_cache_stats_breakdown[GLOBAL_ACC_R][HIT_RESERVED] = 115585
	L2_cache_stats_breakdown[GLOBAL_ACC_R][MISS] = 65536
	L2_cache_stats_breakdown[GLOBAL_ACC_R][RESERVATION_FAIL] = 3
	L2_cache_stats_breakdown[LOCAL_ACC_R][HIT] = 0
	L2_cache_stats_breakdown[LOCAL_ACC_R][HIT_RESERVED] = 0
	L2_cache_stats_breakdown[LOCAL_ACC_R][MISS] = 0
	L2_cache_stats_breakdown[LOCAL_ACC_R][RESERVATION_FAIL] = 0
	L2_cache_stats_breakdown[CONST_ACC_R][HIT] = 28
	L2_cache_stats_breakdown[CONST_ACC_R][HIT_RESERVED] = 27
	L2_cache_stats_breakdown[CONST_ACC_R][MISS] = 1
	L2_cache_stats_breakdown[CONST_ACC_R][RESERVATION_FAIL] = 0
	L2_cache_stats_breakdown[TEXTURE_ACC_R][HIT] = 0
	L2_cache_stats_breakdown[TEXTURE_ACC_R][HIT_RESERVED] = 0
	L2_cache_stats_breakdown[TEXTURE_ACC_R][MISS] = 0
	L2_cache_stats_breakdown[TEXTURE_ACC_R][RESERVATION_FAIL] = 0
	L2_cache_stats_breakdown[GLOBAL_ACC_W][HIT] = 32391
	L2_cache_stats_breakdown[GLOBAL_ACC_W][HIT_RESERVED] = 44409
	L2_cache_stats_breakdown[GLOBAL_ACC_W][MISS] = 32768
	L2_cache_stats_breakdown[GLOBAL_ACC_W][RESERVATION_FAIL] = 175
	L2_cache_stats_breakdown[LOCAL_ACC_W][HIT] = 0
	L2_cache_stats_breakdown[LOCAL_ACC_W][HIT_RESERVED] = 0
	L2_cache_stats_breakdown[LOCAL_ACC_W][MISS] = 0
	L2_cache_stats_breakdown[LOCAL_ACC_W][RESERVATION_FAIL] = 0
	L2_cache_stats_breakdown[L1_WRBK_ACC][HIT] = 0
	L2_cache_stats_breakdown[L1_WRBK_ACC][HIT_RESERVED] = 0
	L2_cache_stats_breakdown[L1_WRBK_ACC][MISS] = 0
	L2_cache_stats_breakdown[L1_WRBK_ACC][RESERVATION_FAIL] = 0
	L2_cache_stats_breakdown[L2_WRBK_ACC][HIT] = 0
	L2_cache_stats_breakdown[L2_WRBK_ACC][HIT_RESERVED] = 0
	L2_cache_stats_breakdown[L2_WRBK_ACC][MISS] = 0
	L2_cache_stats_breakdown[L2_WRBK_ACC][RESERVATION_FAIL] = 0
	L2_cache_stats_breakdown[INST_ACC_R][HIT] = 10
	L2_cache_stats_breakdown[INST_ACC_R][HIT_RESERVED] = 341
	L2_cache_stats_breakdown[INST_ACC_R][MISS] = 13
	L2_cache_stats_breakdown[INST_ACC_R][RESERVATION_FAIL] = 0
	L2_cache_stats_breakdown[L1_WR_ALLOC_R][HIT] = 0
	L2_cache_stats_breakdown[L1_WR_ALLOC_R][HIT_RESERVED] = 0
	L2_cache_stats_breakdown[L1_WR_ALLOC_R][MISS] = 0
	L2_cache_stats_breakdown[L1_WR_ALLOC_R][RESERVATION_FAIL] = 0
	L2_cache_stats_breakdown[L2_WR_ALLOC_R][HIT] = 0
	L2_cache_stats_breakdown[L2_WR_ALLOC_R][HIT_RESERVED] = 0
	L2_cache_stats_breakdown[L2_WR_ALLOC_R][MISS] = 0
	L2_cache_stats_breakdown[L2_WR_ALLOC_R][RESERVATION_FAIL] = 0
	L2_cache_stats_breakdown[GLOBAL_ACC_R][TOTAL_ACCESS] = 346456
	L2_cache_stats_breakdown[CONST_ACC_R][TOTAL_ACCESS] = 56
	L2_cache_stats_breakdown[GLOBAL_ACC_W][TOTAL_ACCESS] = 109568
	L2_cache_stats_breakdown[INST_ACC_R][TOTAL_ACCESS] = 364
L2_cache_data_port_util = 0.011
L2_cache_fill_port_util = 0.009

icnt_total_pkts_mem_to_simt=1270956
icnt_total_pkts_simt_to_mem=674556
LD_mem_lat_dist  0 0 0 0 0 0 0 0 0 0 0 0 0 0 0 0 0 0 0 0 0 0 0 0 0 0 0
ST_mem_lat_dist  0 0 0 0 0 0 0 0 0 0 0 0 0 0 0 0 0 0 0 0 0 0 0 0 0 0 0
----------------------------Interconnect-DETAILS--------------------------------
Class 0:
Packet latency average = 16.3992
	minimum = 6
	maximum = 752
Network latency average = 12.9583
	minimum = 6
	maximum = 747
Slowest packet = 534860
Flit latency average = 12.8736
	minimum = 6
	maximum = 743
Slowest flit = 1143041
Fragmentation average = 0.00151716
	minimum = 0
	maximum = 658
Injected packet rate average = 0.00454689
	minimum = 0.00391663 (at node 15)
	maximum = 0.00521213 (at node 41)
Accepted packet rate average = 0.00454689
	minimum = 0.00391663 (at node 15)
	maximum = 0.00521213 (at node 41)
Injected flit rate average = 0.00969016
	minimum = 0.00579438 (at node 16)
	maximum = 0.014504 (at node 37)
Accepted flit rate average= 0.00969016
	minimum = 0.00759892 (at node 34)
	maximum = 0.011605 (at node 4)
Injected packet length average = 2.13116
Accepted packet length average = 2.13116
Total in-flight flits = 0 (0 measured)
====== Overall Traffic Statistics ======
====== Traffic class 0 ======
Packet latency average = 16.3992 (1 samples)
	minimum = 6 (1 samples)
	maximum = 752 (1 samples)
Network latency average = 12.9583 (1 samples)
	minimum = 6 (1 samples)
	maximum = 747 (1 samples)
Flit latency average = 12.8736 (1 samples)
	minimum = 6 (1 samples)
	maximum = 743 (1 samples)
Fragmentation average = 0.00151716 (1 samples)
	minimum = 0 (1 samples)
	maximum = 658 (1 samples)
Injected packet rate average = 0.00454689 (1 samples)
	minimum = 0.00391663 (1 samples)
	maximum = 0.00521213 (1 samples)
Accepted packet rate average = 0.00454689 (1 samples)
	minimum = 0.00391663 (1 samples)
	maximum = 0.00521213 (1 samples)
Injected flit rate average = 0.00969016 (1 samples)
	minimum = 0.00579438 (1 samples)
	maximum = 0.014504 (1 samples)
Accepted flit rate average = 0.00969016 (1 samples)
	minimum = 0.00759892 (1 samples)
	maximum = 0.011605 (1 samples)
Injected packet size average = 2.13116 (1 samples)
Accepted packet size average = 2.13116 (1 samples)
Hops average = 1 (1 samples)
----------------------------END-of-Interconnect-DETAILS-------------------------


gpgpu_simulation_time = 0 days, 0 hrs, 45 min, 47 sec (2747 sec)
gpgpu_simulation_rate = 151243 (inst/sec)
gpgpu_simulation_rate = 811 (cycle/sec)

GPGPU-Sim PTX: cudaLaunch for 0x0x401ae2 (mode=performance simulation) on stream 0
GPGPU-Sim PTX: pushing kernel '_Z14calculate_tempiPfS_S_iiiiffffff' to stream 0, gridDim= (86,86,1) blockDim = (16,16,1) 
GPGPU-Sim uArch: Shader 11 bind to kernel 2 '_Z14calculate_tempiPfS_S_iiiiffffff'
GPGPU-Sim uArch: Shader 12 bind to kernel 2 '_Z14calculate_tempiPfS_S_iiiiffffff'
GPGPU-Sim uArch: Shader 13 bind to kernel 2 '_Z14calculate_tempiPfS_S_iiiiffffff'
GPGPU-Sim uArch: Shader 14 bind to kernel 2 '_Z14calculate_tempiPfS_S_iiiiffffff'
GPGPU-Sim uArch: Shader 15 bind to kernel 2 '_Z14calculate_tempiPfS_S_iiiiffffff'
GPGPU-Sim uArch: Shader 16 bind to kernel 2 '_Z14calculate_tempiPfS_S_iiiiffffff'
GPGPU-Sim uArch: Shader 17 bind to kernel 2 '_Z14calculate_tempiPfS_S_iiiiffffff'
GPGPU-Sim uArch: Shader 18 bind to kernel 2 '_Z14calculate_tempiPfS_S_iiiiffffff'
GPGPU-Sim uArch: Shader 19 bind to kernel 2 '_Z14calculate_tempiPfS_S_iiiiffffff'
GPGPU-Sim uArch: Shader 20 bind to kernel 2 '_Z14calculate_tempiPfS_S_iiiiffffff'
GPGPU-Sim uArch: Shader 21 bind to kernel 2 '_Z14calculate_tempiPfS_S_iiiiffffff'
GPGPU-Sim uArch: Shader 22 bind to kernel 2 '_Z14calculate_tempiPfS_S_iiiiffffff'
GPGPU-Sim uArch: Shader 23 bind to kernel 2 '_Z14calculate_tempiPfS_S_iiiiffffff'
GPGPU-Sim uArch: Shader 24 bind to kernel 2 '_Z14calculate_tempiPfS_S_iiiiffffff'
GPGPU-Sim uArch: Shader 25 bind to kernel 2 '_Z14calculate_tempiPfS_S_iiiiffffff'
GPGPU-Sim uArch: Shader 26 bind to kernel 2 '_Z14calculate_tempiPfS_S_iiiiffffff'
GPGPU-Sim uArch: Shader 27 bind to kernel 2 '_Z14calculate_tempiPfS_S_iiiiffffff'
GPGPU-Sim uArch: Shader 0 bind to kernel 2 '_Z14calculate_tempiPfS_S_iiiiffffff'
GPGPU-Sim uArch: Shader 1 bind to kernel 2 '_Z14calculate_tempiPfS_S_iiiiffffff'
GPGPU-Sim uArch: Shader 2 bind to kernel 2 '_Z14calculate_tempiPfS_S_iiiiffffff'
GPGPU-Sim uArch: Shader 3 bind to kernel 2 '_Z14calculate_tempiPfS_S_iiiiffffff'
GPGPU-Sim uArch: Shader 4 bind to kernel 2 '_Z14calculate_tempiPfS_S_iiiiffffff'
GPGPU-Sim uArch: Shader 5 bind to kernel 2 '_Z14calculate_tempiPfS_S_iiiiffffff'
GPGPU-Sim uArch: Shader 6 bind to kernel 2 '_Z14calculate_tempiPfS_S_iiiiffffff'
GPGPU-Sim uArch: Shader 7 bind to kernel 2 '_Z14calculate_tempiPfS_S_iiiiffffff'
GPGPU-Sim uArch: Shader 8 bind to kernel 2 '_Z14calculate_tempiPfS_S_iiiiffffff'
GPGPU-Sim uArch: Shader 9 bind to kernel 2 '_Z14calculate_tempiPfS_S_iiiiffffff'
GPGPU-Sim uArch: Shader 10 bind to kernel 2 '_Z14calculate_tempiPfS_S_iiiiffffff'
GPGPU-Sim uArch: Shader 11 bind to kernel 2 '_Z14calculate_tempiPfS_S_iiiiffffff'
[...]
F:  2130682----T:  2190577 	 St: c0b83000 Sz: 512000 	 Sm: 0 	 T: memcpy_h2d(40.442268)
F:  2452021----T:  4516189 	 	 	 Kl: 2 	 Sm: 0 	 T: kernel_launch(1393.766357)
F:  2452434----T:  2455520 	 St: c0400000 Sz: 12288 	 Sm: 0 	 T: memcpy_h2d(2.083727)
F:  2455520----T:  2462842 	 St: c0403000 Sz: 53248 	 Sm: 0 	 T: memcpy_h2d(4.943957)
F:  2462842----T:  2465928 	 St: c0410000 Sz: 12288 	 Sm: 0 	 T: memcpy_h2d(2.083727)
F:  2465928----T:  2473250 	 St: c0413000 Sz: 53248 	 Sm: 0 	 T: memcpy_h2d(4.943957)
F:  2473250----T:  2476336 	 St: c0420000 Sz: 12288 	 Sm: 0 	 T: memcpy_h2d(2.083727)
F:  2476336----T:  2491094 	 St: c0423000 Sz: 118784 	 Sm: 0 	 T: memcpy_h2d(9.964889)
F:  2498971----T:  2502783 	 St: c0440000 Sz: 20480 	 Sm: 0 	 T: memcpy_h2d(2.573936)
F:  2502783----T:  2531625 	 St: c0445000 Sz: 241664 	 Sm: 0 	 T: memcpy_h2d(19.474680)
F:  2546300----T:  2549386 	 St: c0480000 Sz: 12288 	 Sm: 0 	 T: memcpy_h2d(2.083727)
F:  2546300----T:  2788380 	 St: c0600000 Sz: 2097152 	 Sm: 0 	 T: write_back(163.457123)
F:  2549386----T:  2609281 	 St: c0483000 Sz: 512000 	 Sm: 0 	 T: memcpy_h2d(40.442268)
F:  2819157----T:  2821762 	 St: c0500000 Sz: 4096 	 Sm: 0 	 T: memcpy_h2d(1.758947)
F:  2821762----T:  2942851 	 St: c0501000 Sz: 1044480 	 Sm: 0 	 T: memcpy_h2d(81.761650)
F:  3009002----T:  3012088 	 St: c0600000 Sz: 12288 	 Sm: 0 	 T: memcpy_h2d(2.083727)
F:  3012088----T:  3019410 	 St: c0603000 Sz: 53248 	 Sm: 0 	 T: memcpy_h2d(4.943957)
F:  3012472----T:  3254552 	 St: c0200000 Sz: 2097152 	 Sm: 0 	 T: write_back(163.457123)
F:  3019410----T:  3022015 	 St: c0a00000 Sz: 4096 	 Sm: 0 	 T: memcpy_h2d(1.758947)
F:  3022015----T:  3143104 	 St: c0a01000 Sz: 1044480 	 Sm: 0 	 T: memcpy_h2d(81.761650)
F:  3145062----T:  3147667 	 St: c0200000 Sz: 4096 	 Sm: 0 	 T: memcpy_h2d(1.758947)
F:  3147667----T:  3155907 	 St: c0201000 Sz: 61440 	 Sm: 0 	 T: memcpy_h2d(5.563808)
F:  3255194----T:  3257799 	 St: c0610000 Sz: 4096 	 Sm: 0 	 T: memcpy_h2d(1.758947)
F:  3257799----T:  3266039 	 St: c0611000 Sz: 61440 	 Sm: 0 	 T: memcpy_h2d(5.563808)
F:  3266039----T:  3269125 	 St: c0620000 Sz: 12288 	 Sm: 0 	 T: memcpy_h2d(2.083727)
F:  3269125----T:  3283883 	 St: c0623000 Sz: 118784 	 Sm: 0 	 T: memcpy_h2d(9.964889)
F:  3283883----T:  3286488 	 St: c0210000 Sz: 4096 	 Sm: 0 	 T: memcpy_h2d(1.758947)
F:  3286488----T:  3294728 	 St: c0211000 Sz: 61440 	 Sm: 0 	 T: memcpy_h2d(5.563808)
F:  3294728----T:  3297333 	 St: c0220000 Sz: 4096 	 Sm: 0 	 T: memcpy_h2d(1.758947)
F:  3297333----T:  3313028 	 St: c0221000 Sz: 126976 	 Sm: 0 	 T: memcpy_h2d(10.597569)
F:  3314618----T:  3317223 	 St: c0640000 Sz: 4096 	 Sm: 0 	 T: memcpy_h2d(1.758947)
F:  3317223----T:  3347946 	 St: c0641000 Sz: 258048 	 Sm: 0 	 T: memcpy_h2d(20.744766)
F:  3354947----T:  3357552 	 St: c0240000 Sz: 4096 	 Sm: 0 	 T: memcpy_h2d(1.758947)
F:  3357552----T:  3388275 	 St: c0241000 Sz: 258048 	 Sm: 0 	 T: memcpy_h2d(20.744766)
F:  3396863----T:  3399949 	 St: c0680000 Sz: 12288 	 Sm: 0 	 T: memcpy_h2d(2.083727)
F:  3399949----T:  3459844 	 St: c0683000 Sz: 512000 	 Sm: 0 	 T: memcpy_h2d(40.442268)
F:  3465730----T:  3468335 	 St: c0280000 Sz: 4096 	 Sm: 0 	 T: memcpy_h2d(1.758947)
F:  3465730----T:  3707810 	 St: c0a00000 Sz: 2097152 	 Sm: 0 	 T: write_back(163.457123)
F:  3468335----T:  3529171 	 St: c0281000 Sz: 520192 	 Sm: 0 	 T: memcpy_h2d(41.077652)
F:  3708394----T:  3711480 	 St: c0a90000 Sz: 12288 	 Sm: 0 	 T: memcpy_h2d(2.083727)
F:  3711480----T:  3718802 	 St: c0a93000 Sz: 53248 	 Sm: 0 	 T: memcpy_h2d(4.943957)
F:  3718802----T:  3721407 	 St: c0aa0000 Sz: 4096 	 Sm: 0 	 T: memcpy_h2d(1.758947)
F:  3721407----T:  3729647 	 St: c0aa1000 Sz: 61440 	 Sm: 0 	 T: memcpy_h2d(5.563808)
F:  3729647----T:  3738349 	 St: c0a80000 Sz: 65536 	 Sm: 0 	 T: memcpy_h2d(5.875760)
F:  3738349----T:  3741435 	 St: c0ab0000 Sz: 12288 	 Sm: 0 	 T: memcpy_h2d(2.083727)
F:  3741435----T:  3748757 	 St: c0ab3000 Sz: 53248 	 Sm: 0 	 T: memcpy_h2d(4.943957)
F:  3749901----T:  3752987 	 St: c0ac0000 Sz: 12288 	 Sm: 0 	 T: memcpy_h2d(2.083727)
F:  3752987----T:  3782770 	 St: c0ac3000 Sz: 249856 	 Sm: 0 	 T: memcpy_h2d(20.110062)
F:  3797193----T:  3799798 	 St: c0700000 Sz: 4096 	 Sm: 0 	 T: memcpy_h2d(1.758947)
F:  3799798----T:  3920887 	 St: c0701000 Sz: 1044480 	 Sm: 0 	 T: memcpy_h2d(81.761650)
F:  3921262----T:  3923867 	 St: c0b00000 Sz: 4096 	 Sm: 0 	 T: memcpy_h2d(1.758947)
F:  3921963----T:  4164043 	 St: c0400000 Sz: 2097152 	 Sm: 0 	 T: write_back(163.457123)
F:  3923867----T:  3932107 	 St: c0b01000 Sz: 61440 	 Sm: 0 	 T: memcpy_h2d(5.563808)
F:  3932107----T:  3935193 	 St: c0b10000 Sz: 12288 	 Sm: 0 	 T: memcpy_h2d(2.083727)
F:  3935193----T:  3942515 	 St: c0b13000 Sz: 53248 	 Sm: 0 	 T: memcpy_h2d(4.943957)
F:  3942515----T:  3945120 	 St: c0300000 Sz: 4096 	 Sm: 0 	 T: memcpy_h2d(1.758947)
F:  3945120----T:  4066209 	 St: c0301000 Sz: 1044480 	 Sm: 0 	 T: memcpy_h2d(81.761650)
F:  4165462----T:  4168548 	 St: c0b20000 Sz: 12288 	 Sm: 0 	 T: memcpy_h2d(2.083727)
F:  4168548----T:  4183306 	 St: c0b23000 Sz: 118784 	 Sm: 0 	 T: memcpy_h2d(9.964889)
F:  4190698----T:  4193784 	 St: c0b40000 Sz: 12288 	 Sm: 0 	 T: memcpy_h2d(2.083727)
F:  4193784----T:  4223567 	 St: c0b43000 Sz: 249856 	 Sm: 0 	 T: memcpy_h2d(20.110062)
F:  4238302----T:  4299609 	 St: c0a00000 Sz: 524288 	 Sm: 0 	 T: memcpy_h2d(41.395679)
F:  4238302----T:  4480382 	 St: c0000000 Sz: 2097152 	 Sm: 0 	 T: write_back(163.457123)
F:  4299609----T:  4302695 	 St: c0b80000 Sz: 12288 	 Sm: 0 	 T: memcpy_h2d(2.083727)
F:  4302695----T:  4362590 	 St: c0b83000 Sz: 512000 	 Sm: 0 	 T: memcpy_h2d(40.442268)
F:  4738339----T:  6953896 	 	 	 Kl: 3 	 Sm: 0 	 T: kernel_launch(1495.987183)
F:  4738752----T:  4741838 	 St: c0000000 Sz: 12288 	 Sm: 0 	 T: memcpy_h2d(2.083727)
F:  4741838----T:  4749160 	 St: c0003000 Sz: 53248 	 Sm: 0 	 T: memcpy_h2d(4.943957)
F:  4749160----T:  4752246 	 St: c0010000 Sz: 12288 	 Sm: 0 	 T: memcpy_h2d(2.083727)
F:  4752246----T:  4759568 	 St: c0013000 Sz: 53248 	 Sm: 0 	 T: memcpy_h2d(4.943957)
F:  4759568----T:  4762654 	 St: c0020000 Sz: 12288 	 Sm: 0 	 T: memcpy_h2d(2.083727)
F:  4762654----T:  4777412 	 St: c0023000 Sz: 118784 	 Sm: 0 	 T: memcpy_h2d(9.964889)
F:  4777412----T:  4780017 	 St: c0400000 Sz: 4096 	 Sm: 0 	 T: memcpy_h2d(1.758947)
F:  4780017----T:  4788257 	 St: c0401000 Sz: 61440 	 Sm: 0 	 T: memcpy_h2d(5.563808)
F:  4788257----T:  4790862 	 St: c0410000 Sz: 4096 	 Sm: 0 	 T: memcpy_h2d(1.758947)
F:  4790862----T:  4799102 	 St: c0411000 Sz: 61440 	 Sm: 0 	 T: memcpy_h2d(5.563808)
F:  4799102----T:  4801707 	 St: c0420000 Sz: 4096 	 Sm: 0 	 T: memcpy_h2d(1.758947)
F:  4801707----T:  4817402 	 St: c0421000 Sz: 126976 	 Sm: 0 	 T: memcpy_h2d(10.597569)
F:  4825110----T:  4828196 	 St: c0040000 Sz: 12288 	 Sm: 0 	 T: memcpy_h2d(2.083727)
F:  4828196----T:  4857979 	 St: c0043000 Sz: 249856 	 Sm: 0 	 T: memcpy_h2d(20.110062)
F:  4863840----T:  4866926 	 St: c0440000 Sz: 12288 	 Sm: 0 	 T: memcpy_h2d(2.083727)
F:  4866926----T:  4896709 	 St: c0443000 Sz: 249856 	 Sm: 0 	 T: memcpy_h2d(20.110062)
F:  4905175----T:  4908261 	 St: c0080000 Sz: 12288 	 Sm: 0 	 T: memcpy_h2d(2.083727)
F:  4908261----T:  4968156 	 St: c0083000 Sz: 512000 	 Sm: 0 	 T: memcpy_h2d(40.442268)
F:  4974091----T:  4977177 	 St: c0480000 Sz: 12288 	 Sm: 0 	 T: memcpy_h2d(2.083727)
F:  4974091----T:  5216171 	 St: c0600000 Sz: 2097152 	 Sm: 0 	 T: write_back(163.457123)
F:  4977177----T:  5037072 	 St: c0483000 Sz: 512000 	 Sm: 0 	 T: memcpy_h2d(40.442268)
F:  5240737----T:  5243342 	 St: c0100000 Sz: 4096 	 Sm: 0 	 T: memcpy_h2d(1.758947)
F:  5243342----T:  5364431 	 St: c0101000 Sz: 1044480 	 Sm: 0 	 T: memcpy_h2d(81.761650)
F:  5370373----T:  5373459 	 St: c0500000 Sz: 12288 	 Sm: 0 	 T: memcpy_h2d(2.083727)
F:  5370373----T:  5612453 	 St: c0200000 Sz: 2097152 	 Sm: 0 	 T: write_back(163.457123)
F:  5373459----T:  5493607 	 St: c0503000 Sz: 1036288 	 Sm: 0 	 T: memcpy_h2d(81.126266)
F:  5671515----T:  5674601 	 St: c0200000 Sz: 12288 	 Sm: 0 	 T: memcpy_h2d(2.083727)
F:  5674601----T:  5681923 	 St: c0203000 Sz: 53248 	 Sm: 0 	 T: memcpy_h2d(4.943957)
F:  5682641----T:  5685246 	 St: c0210000 Sz: 4096 	 Sm: 0 	 T: memcpy_h2d(1.758947)
F:  5685246----T:  5693486 	 St: c0211000 Sz: 61440 	 Sm: 0 	 T: memcpy_h2d(5.563808)
F:  5693486----T:  5696091 	 St: c0600000 Sz: 4096 	 Sm: 0 	 T: memcpy_h2d(1.758947)
F:  5696091----T:  5704331 	 St: c0601000 Sz: 61440 	 Sm: 0 	 T: memcpy_h2d(5.563808)
F:  5704331----T:  5709846 	 St: c0610000 Sz: 36864 	 Sm: 0 	 T: memcpy_h2d(3.723835)
F:  5709846----T:  5714487 	 St: c0619000 Sz: 28672 	 Sm: 0 	 T: memcpy_h2d(3.133693)
F:  5715425----T:  5718511 	 St: c0220000 Sz: 12288 	 Sm: 0 	 T: memcpy_h2d(2.083727)
F:  5718511----T:  5733269 	 St: c0223000 Sz: 118784 	 Sm: 0 	 T: memcpy_h2d(9.964889)
F:  5733888----T:  5736493 	 St: c0240000 Sz: 4096 	 Sm: 0 	 T: memcpy_h2d(1.758947)
F:  5736493----T:  5767216 	 St: c0241000 Sz: 258048 	 Sm: 0 	 T: memcpy_h2d(20.744766)
F:  5767216----T:  5769821 	 St: c0620000 Sz: 4096 	 Sm: 0 	 T: memcpy_h2d(1.758947)
F:  5769821----T:  5785516 	 St: c0621000 Sz: 126976 	 Sm: 0 	 T: memcpy_h2d(10.597569)
F:  5792694----T:  5795299 	 St: c0640000 Sz: 4096 	 Sm: 0 	 T: memcpy_h2d(1.758947)
F:  5795299----T:  5826022 	 St: c0641000 Sz: 258048 	 Sm: 0 	 T: memcpy_h2d(20.744766)
F:  5834744----T:  5837830 	 St: c0280000 Sz: 12288 	 Sm: 0 	 T: memcpy_h2d(2.083727)
F:  5837830----T:  5897725 	 St: c0283000 Sz: 512000 	 Sm: 0 	 T: memcpy_h2d(40.442268)
F:  5903787----T:  5906873 	 St: c0680000 Sz: 12288 	 Sm: 0 	 T: memcpy_h2d(2.083727)
F:  5903787----T:  6145867 	 St: c0a00000 Sz: 2097152 	 Sm: 0 	 T: write_back(163.457123)
F:  5906873----T:  5966768 	 St: c0683000 Sz: 512000 	 Sm: 0 	 T: memcpy_h2d(40.442268)
F:  6146451----T:  6149537 	 St: c0a90000 Sz: 12288 	 Sm: 0 	 T: memcpy_h2d(2.083727)
F:  6149537----T:  6156859 	 St: c0a93000 Sz: 53248 	 Sm: 0 	 T: memcpy_h2d(4.943957)
F:  6156859----T:  6159464 	 St: c0aa0000 Sz: 4096 	 Sm: 0 	 T: memcpy_h2d(1.758947)
F:  6159464----T:  6167704 	 St: c0aa1000 Sz: 61440 	 Sm: 0 	 T: memcpy_h2d(5.563808)
F:  6167704----T:  6176406 	 St: c0a80000 Sz: 65536 	 Sm: 0 	 T: memcpy_h2d(5.875760)
F:  6176406----T:  6179492 	 St: c0ab0000 Sz: 12288 	 Sm: 0 	 T: memcpy_h2d(2.083727)
F:  6179492----T:  6186814 	 St: c0ab3000 Sz: 53248 	 Sm: 0 	 T: memcpy_h2d(4.943957)
F:  6187952----T:  6191038 	 St: c0ac0000 Sz: 12288 	 Sm: 0 	 T: memcpy_h2d(2.083727)
F:  6191038----T:  6220821 	 St: c0ac3000 Sz: 249856 	 Sm: 0 	 T: memcpy_h2d(20.110062)
F:  6235111----T:  6237716 	 St: c0300000 Sz: 4096 	 Sm: 0 	 T: memcpy_h2d(1.758947)
F:  6237716----T:  6358805 	 St: c0301000 Sz: 1044480 	 Sm: 0 	 T: memcpy_h2d(81.761650)
F:  6359186----T:  6361791 	 St: c0b00000 Sz: 4096 	 Sm: 0 	 T: memcpy_h2d(1.758947)
F:  6360059----T:  6602139 	 St: c0400000 Sz: 2097152 	 Sm: 0 	 T: write_back(163.457123)
F:  6361791----T:  6370031 	 St: c0b01000 Sz: 61440 	 Sm: 0 	 T: memcpy_h2d(5.563808)
F:  6370031----T:  6373117 	 St: c0b10000 Sz: 12288 	 Sm: 0 	 T: memcpy_h2d(2.083727)
F:  6373117----T:  6380439 	 St: c0b13000 Sz: 53248 	 Sm: 0 	 T: memcpy_h2d(4.943957)
F:  6380439----T:  6383044 	 St: c0700000 Sz: 4096 	 Sm: 0 	 T: memcpy_h2d(1.758947)
F:  6383044----T:  6504133 	 St: c0701000 Sz: 1044480 	 Sm: 0 	 T: memcpy_h2d(81.761650)
F:  6603551----T:  6606637 	 St: c0b20000 Sz: 12288 	 Sm: 0 	 T: memcpy_h2d(2.083727)
F:  6606637----T:  6621395 	 St: c0b23000 Sz: 118784 	 Sm: 0 	 T: memcpy_h2d(9.964889)
F:  6628732----T:  6631818 	 St: c0b40000 Sz: 12288 	 Sm: 0 	 T: memcpy_h2d(2.083727)
F:  6631818----T:  6661601 	 St: c0b43000 Sz: 249856 	 Sm: 0 	 T: memcpy_h2d(20.110062)
F:  6676252----T:  6737559 	 St: c0a00000 Sz: 524288 	 Sm: 0 	 T: memcpy_h2d(41.395679)
F:  6676252----T:  6918332 	 St: c0000000 Sz: 2097152 	 Sm: 0 	 T: write_back(163.457123)
F:  6737559----T:  6740645 	 St: c0b80000 Sz: 12288 	 Sm: 0 	 T: memcpy_h2d(2.083727)
F:  6740645----T:  6800540 	 St: c0b83000 Sz: 512000 	 Sm: 0 	 T: memcpy_h2d(40.442268)
F:  7176046----T:  9391724 	 	 	 Kl: 4 	 Sm: 0 	 T: kernel_launch(1496.068848)
F:  7176470----T:  7179556 	 St: c0400000 Sz: 12288 	 Sm: 0 	 T: memcpy_h2d(2.083727)
F:  7179556----T:  7186878 	 St: c0403000 Sz: 53248 	 Sm: 0 	 T: memcpy_h2d(4.943957)
F:  7186878----T:  7189964 	 St: c0410000 Sz: 12288 	 Sm: 0 	 T: memcpy_h2d(2.083727)
F:  7189964----T:  7197286 	 St: c0413000 Sz: 53248 	 Sm: 0 	 T: memcpy_h2d(4.943957)
F:  7197286----T:  7200372 	 St: c0420000 Sz: 12288 	 Sm: 0 	 T: memcpy_h2d(2.083727)
F:  7200372----T:  7215130 	 St: c0423000 Sz: 118784 	 Sm: 0 	 T: memcpy_h2d(9.964889)
F:  7215130----T:  7217735 	 St: c0000000 Sz: 4096 	 Sm: 0 	 T: memcpy_h2d(1.758947)
F:  7217735----T:  7225975 	 St: c0001000 Sz: 61440 	 Sm: 0 	 T: memcpy_h2d(5.563808)
F:  7225975----T:  7229061 	 St: c0010000 Sz: 12288 	 Sm: 0 	 T: memcpy_h2d(2.083727)
F:  7229061----T:  7236383 	 St: c0013000 Sz: 53248 	 Sm: 0 	 T: memcpy_h2d(4.943957)
F:  7236383----T:  7238988 	 St: c0020000 Sz: 4096 	 Sm: 0 	 T: memcpy_h2d(1.758947)
F:  7238988----T:  7254683 	 St: c0021000 Sz: 126976 	 Sm: 0 	 T: memcpy_h2d(10.597569)
F:  7262389----T:  7265475 	 St: c0440000 Sz: 12288 	 Sm: 0 	 T: memcpy_h2d(2.083727)
F:  7265475----T:  7295258 	 St: c0443000 Sz: 249856 	 Sm: 0 	 T: memcpy_h2d(20.110062)
F:  7301062----T:  7303667 	 St: c0040000 Sz: 4096 	 Sm: 0 	 T: memcpy_h2d(1.758947)
F:  7303667----T:  7334390 	 St: c0041000 Sz: 258048 	 Sm: 0 	 T: memcpy_h2d(20.744766)
F:  7342791----T:  7345877 	 St: c0480000 Sz: 12288 	 Sm: 0 	 T: memcpy_h2d(2.083727)
F:  7345877----T:  7405772 	 St: c0483000 Sz: 512000 	 Sm: 0 	 T: memcpy_h2d(40.442268)
F:  7411783----T:  7414388 	 St: c0080000 Sz: 4096 	 Sm: 0 	 T: memcpy_h2d(1.758947)
F:  7411783----T:  7653863 	 St: c0600000 Sz: 2097152 	 Sm: 0 	 T: write_back(163.457123)
F:  7414388----T:  7475224 	 St: c0081000 Sz: 520192 	 Sm: 0 	 T: memcpy_h2d(41.077652)
F:  7677892----T:  7680978 	 St: c0500000 Sz: 12288 	 Sm: 0 	 T: memcpy_h2d(2.083727)
F:  7680978----T:  7801126 	 St: c0503000 Sz: 1036288 	 Sm: 0 	 T: memcpy_h2d(81.126266)
F:  7807094----T:  7809699 	 St: c0100000 Sz: 4096 	 Sm: 0 	 T: memcpy_h2d(1.758947)
F:  7807094----T:  8049174 	 St: c0200000 Sz: 2097152 	 Sm: 0 	 T: write_back(163.457123)
F:  7809699----T:  7930788 	 St: c0101000 Sz: 1044480 	 Sm: 0 	 T: memcpy_h2d(81.761650)
F:  8108755----T:  8111841 	 St: c0600000 Sz: 12288 	 Sm: 0 	 T: memcpy_h2d(2.083727)
F:  8111841----T:  8119163 	 St: c0603000 Sz: 53248 	 Sm: 0 	 T: memcpy_h2d(4.943957)
F:  8119676----T:  8122281 	 St: c0610000 Sz: 4096 	 Sm: 0 	 T: memcpy_h2d(1.758947)
F:  8122281----T:  8130521 	 St: c0611000 Sz: 61440 	 Sm: 0 	 T: memcpy_h2d(5.563808)
F:  8130521----T:  8133126 	 St: c0200000 Sz: 4096 	 Sm: 0 	 T: memcpy_h2d(1.758947)
F:  8133126----T:  8141366 	 St: c0201000 Sz: 61440 	 Sm: 0 	 T: memcpy_h2d(5.563808)
F:  8141366----T:  8146881 	 St: c0210000 Sz: 36864 	 Sm: 0 	 T: memcpy_h2d(3.723835)
F:  8146881----T:  8151522 	 St: c0219000 Sz: 28672 	 Sm: 0 	 T: memcpy_h2d(3.133693)
F:  8152474----T:  8155560 	 St: c0620000 Sz: 12288 	 Sm: 0 	 T: memcpy_h2d(2.083727)
F:  8155560----T:  8170318 	 St: c0623000 Sz: 118784 	 Sm: 0 	 T: memcpy_h2d(9.964889)
F:  8170936----T:  8173541 	 St: c0640000 Sz: 4096 	 Sm: 0 	 T: memcpy_h2d(1.758947)
F:  8173541----T:  8204264 	 St: c0641000 Sz: 258048 	 Sm: 0 	 T: memcpy_h2d(20.744766)
F:  8204264----T:  8206869 	 St: c0220000 Sz: 4096 	 Sm: 0 	 T: memcpy_h2d(1.758947)
F:  8206869----T:  8222564 	 St: c0221000 Sz: 126976 	 Sm: 0 	 T: memcpy_h2d(10.597569)
F:  8229901----T:  8232506 	 St: c0240000 Sz: 4096 	 Sm: 0 	 T: memcpy_h2d(1.758947)
F:  8232506----T:  8263229 	 St: c0241000 Sz: 258048 	 Sm: 0 	 T: memcpy_h2d(20.744766)
F:  8271977----T:  8274582 	 St: c0680000 Sz: 4096 	 Sm: 0 	 T: memcpy_h2d(1.758947)
F:  8274582----T:  8335418 	 St: c0681000 Sz: 520192 	 Sm: 0 	 T: memcpy_h2d(41.077652)
F:  8341385----T:  8343990 	 St: c0280000 Sz: 4096 	 Sm: 0 	 T: memcpy_h2d(1.758947)
F:  8341385----T:  8583465 	 St: c0a00000 Sz: 2097152 	 Sm: 0 	 T: write_back(163.457123)
F:  8343990----T:  8404826 	 St: c0281000 Sz: 520192 	 Sm: 0 	 T: memcpy_h2d(41.077652)
F:  8584050----T:  8587136 	 St: c0a90000 Sz: 12288 	 Sm: 0 	 T: memcpy_h2d(2.083727)
F:  8587136----T:  8594458 	 St: c0a93000 Sz: 53248 	 Sm: 0 	 T: memcpy_h2d(4.943957)
F:  8594458----T:  8597063 	 St: c0aa0000 Sz: 4096 	 Sm: 0 	 T: memcpy_h2d(1.758947)
F:  8597063----T:  8605303 	 St: c0aa1000 Sz: 61440 	 Sm: 0 	 T: memcpy_h2d(5.563808)
F:  8605303----T:  8614005 	 St: c0a80000 Sz: 65536 	 Sm: 0 	 T: memcpy_h2d(5.875760)
F:  8614005----T:  8617091 	 St: c0ab0000 Sz: 12288 	 Sm: 0 	 T: memcpy_h2d(2.083727)
F:  8617091----T:  8624413 	 St: c0ab3000 Sz: 53248 	 Sm: 0 	 T: memcpy_h2d(4.943957)
F:  8625538----T:  8628624 	 St: c0ac0000 Sz: 12288 	 Sm: 0 	 T: memcpy_h2d(2.083727)
F:  8628624----T:  8658407 	 St: c0ac3000 Sz: 249856 	 Sm: 0 	 T: memcpy_h2d(20.110062)
F:  8672882----T:  8675487 	 St: c0700000 Sz: 4096 	 Sm: 0 	 T: memcpy_h2d(1.758947)
F:  8675487----T:  8796576 	 St: c0701000 Sz: 1044480 	 Sm: 0 	 T: memcpy_h2d(81.761650)
F:  8796955----T:  8799560 	 St: c0b00000 Sz: 4096 	 Sm: 0 	 T: memcpy_h2d(1.758947)
F:  8797653----T:  9039733 	 St: c0400000 Sz: 2097152 	 Sm: 0 	 T: write_back(163.457123)
F:  8799560----T:  8807800 	 St: c0b01000 Sz: 61440 	 Sm: 0 	 T: memcpy_h2d(5.563808)
F:  8807800----T:  8810886 	 St: c0b10000 Sz: 12288 	 Sm: 0 	 T: memcpy_h2d(2.083727)
F:  8810886----T:  8818208 	 St: c0b13000 Sz: 53248 	 Sm: 0 	 T: memcpy_h2d(4.943957)
F:  8818208----T:  8820813 	 St: c0300000 Sz: 4096 	 Sm: 0 	 T: memcpy_h2d(1.758947)
F:  8820813----T:  8941902 	 St: c0301000 Sz: 1044480 	 Sm: 0 	 T: memcpy_h2d(81.761650)
F:  9041144----T:  9044230 	 St: c0b20000 Sz: 12288 	 Sm: 0 	 T: memcpy_h2d(2.083727)
F:  9044230----T:  9058988 	 St: c0b23000 Sz: 118784 	 Sm: 0 	 T: memcpy_h2d(9.964889)
F:  9066268----T:  9069354 	 St: c0b40000 Sz: 12288 	 Sm: 0 	 T: memcpy_h2d(2.083727)
F:  9069354----T:  9099137 	 St: c0b43000 Sz: 249856 	 Sm: 0 	 T: memcpy_h2d(20.110062)
F:  9113809----T:  9175116 	 St: c0a00000 Sz: 524288 	 Sm: 0 	 T: memcpy_h2d(41.395679)
F:  9113809----T:  9355889 	 St: c0000000 Sz: 2097152 	 Sm: 0 	 T: write_back(163.457123)
F:  9175116----T:  9178202 	 St: c0b80000 Sz: 12288 	 Sm: 0 	 T: memcpy_h2d(2.083727)
F:  9178202----T:  9238097 	 St: c0b83000 Sz: 512000 	 Sm: 0 	 T: memcpy_h2d(40.442268)
F:  9391724----T:  9394329 	 St: 0 Sz: 4096 	 Sm: 0 	 T: device_sync(1.758947)
F:  9391724----T:  9399964 	 St: 0 Sz: 61440 	 Sm: 0 	 T: device_sync(5.563808)
F:  9402569----T:  9405174 	 St: 0 Sz: 4096 	 Sm: 0 	 T: device_sync(1.758947)
F:  9402569----T:  9410809 	 St: 0 Sz: 61440 	 Sm: 0 	 T: device_sync(5.563808)
F:  9413414----T:  9416019 	 St: 0 Sz: 4096 	 Sm: 0 	 T: device_sync(1.758947)
F:  9413414----T:  9429109 	 St: 0 Sz: 126976 	 Sm: 0 	 T: device_sync(10.597569)
F:  9431714----T:  9434319 	 St: 0 Sz: 4096 	 Sm: 0 	 T: device_sync(1.758947)
F:  9431714----T:  9462437 	 St: 0 Sz: 258048 	 Sm: 0 	 T: device_sync(20.744766)
F:  9465042----T:  9467647 	 St: 0 Sz: 4096 	 Sm: 0 	 T: device_sync(1.758947)
F:  9465042----T:  9525878 	 St: 0 Sz: 520192 	 Sm: 0 	 T: device_sync(41.077652)
F:  9528483----T:  9531088 	 St: 0 Sz: 4096 	 Sm: 0 	 T: device_sync(1.758947)
F:  9528483----T:  9649572 	 St: 0 Sz: 1044480 	 Sm: 0 	 T: device_sync(81.761650)
Tot_prefetch_time: 0(cycle), 0.000000(us)
Tot_kernel_exec_time: 8503124(cycle), 5741.474609(us)
Tot_kernel_exec_time_and_fault_time: 17500199(cycle), 11816.475586(us)
Tot_memcpy_h2d_time: 5474569(cycle), 3696.535400(us)
Tot_memcpy_d2h_time: 0(cycle), 0.000000(us)
Tot_memcpy_time: 5474569(cycle), 3696.535400(us)
Tot_devicesync_time: 260453(cycle), 175.862930(us)
Tot_writeback_time: 4115360(cycle), 2778.770996(us)
Tot_dma_time: 0(cycle), 0.000000(us)
Tot_memcpy_d2h_sync_wb_time: 4375813(cycle), 2954.634033(us)
GPGPU-Sim: *** exit detected ***
