

        *** GPGPU-Sim Simulator Version 3.2.2  [build gpgpu-sim_git-commit-7c62de1d26a7fea160a1181332b97276bc435f13_modified_1] ***


GPGPU-Sim PTX: simulation mode 0 (can change with PTX_SIM_MODE_FUNC environment variable:
               1=functional simulation only, 0=detailed performance simulator)
GPGPU-Sim: Configuration options:

-network_mode                           1 # Interconnection network mode
-inter_config_file   config_fermi_islip.icnt # Interconnection network config file
-gpgpu_ptx_use_cuobjdump                    1 # Use cuobjdump to extract ptx and sass from binaries
-gpgpu_experimental_lib_support                    0 # Try to extract code from cuda libraries [Broken because of unknown cudaGetExportTable]
-gpgpu_ptx_convert_to_ptxplus                    0 # Convert SASS (native ISA) to ptxplus and run ptxplus
-gpgpu_ptx_force_max_capability                   20 # Force maximum compute capability
-gpgpu_ptx_inst_debug_to_file                    0 # Dump executed instructions' debug information to file
-gpgpu_ptx_inst_debug_file       inst_debug.txt # Executed instructions' debug output file
-gpgpu_ptx_inst_debug_thread_uid                    1 # Thread UID for executed instructions' debug output
-gpgpu_simd_model                       1 # 1 = post-dominator
-gpgpu_shader_core_pipeline              2048:32 # shader core pipeline config, i.e., {<nthread>:<warpsize>}
-gpgpu_tex_cache:l1  16:128:24,L:R:m:N:L,F:128:4,128:2 # per-shader L1 texture cache  (READ-ONLY) config  {<nsets>:<bsize>:<assoc>,<rep>:<wr>:<alloc>:<wr_alloc>,<mshr>:<N>:<merge>,<mq>:<rf>}
-gpgpu_const_cache:l1 128:64:2,L:R:f:N:L,A:2:64,4 # per-shader L1 constant memory cache  (READ-ONLY) config  {<nsets>:<bsize>:<assoc>,<rep>:<wr>:<alloc>:<wr_alloc>,<mshr>:<N>:<merge>,<mq>} 
-gpgpu_cache:il1     8:128:4,L:R:f:N:L,A:2:48,4 # shader L1 instruction cache config  {<nsets>:<bsize>:<assoc>,<rep>:<wr>:<alloc>:<wr_alloc>,<mshr>:<N>:<merge>,<mq>} 
-gpgpu_cache:dl1     64:128:6,L:L:m:N:H,A:128:8,8 # per-shader L1 data cache config  {<nsets>:<bsize>:<assoc>,<rep>:<wr>:<alloc>:<wr_alloc>,<mshr>:<N>:<merge>,<mq> | none}
-gpgpu_cache:dl1PrefL1                 none # per-shader L1 data cache config  {<nsets>:<bsize>:<assoc>,<rep>:<wr>:<alloc>:<wr_alloc>,<mshr>:<N>:<merge>,<mq> | none}
-gpgpu_cache:dl1PrefShared                 none # per-shader L1 data cache config  {<nsets>:<bsize>:<assoc>,<rep>:<wr>:<alloc>:<wr_alloc>,<mshr>:<N>:<merge>,<mq> | none}
-gmem_skip_L1D                          1 # global memory access skip L1D cache (implements -Xptxas -dlcm=cg, default=no skip)
-gpgpu_perfect_mem                      0 # enable perfect memory mode (no cache miss)
-n_regfile_gating_group                    4 # group of lanes that should be read/written together)
-gpgpu_clock_gated_reg_file                    0 # enable clock gated reg file for power calculations
-gpgpu_clock_gated_lanes                    0 # enable clock gated lanes for power calculations
-gpgpu_shader_registers                65536 # Number of registers per shader core. Limits number of concurrent CTAs. (default 8192)
-gpgpu_shader_cta                      32 # Maximum number of concurrent CTAs in shader (default 8)
-gpgpu_num_cta_barriers                   16 # Maximum number of named barriers per CTA (default 16)
-gpgpu_n_clusters                      28 # number of processing clusters
-gpgpu_n_cores_per_cluster                    1 # number of simd cores per cluster
-gpgpu_n_cluster_ejection_buffer_size                    8 # number of packets in ejection buffer
-gpgpu_n_ldst_response_buffer_size                    2 # number of response packets in ld/st unit ejection buffer
-gpgpu_shmem_size                   16384 # Size of shared memory per shader core (default 16kB)
-gpgpu_shmem_size                   98304 # Size of shared memory per shader core (default 16kB)
-gpgpu_shmem_size_PrefL1                16384 # Size of shared memory per shader core (default 16kB)
-gpgpu_shmem_size_PrefShared                16384 # Size of shared memory per shader core (default 16kB)
-gpgpu_shmem_num_banks                   32 # Number of banks in the shared memory in each shader core (default 16)
-gpgpu_shmem_limited_broadcast                    0 # Limit shared memory to do one broadcast per cycle (default on)
-gpgpu_shmem_warp_parts                    1 # Number of portions a warp is divided into for shared memory bank conflict check 
-gpgpu_warpdistro_shader                   -1 # Specify which shader core to collect the warp size distribution from
-gpgpu_warp_issue_shader                    0 # Specify which shader core to collect the warp issue distribution from
-gpgpu_local_mem_map                    1 # Mapping from local memory space address to simulated GPU physical address space (default = enabled)
-gpgpu_num_reg_banks                   32 # Number of register banks (default = 8)
-gpgpu_reg_bank_use_warp_id                    0 # Use warp ID in mapping registers to banks (default = off)
-gpgpu_operand_collector_num_units_sp                   20 # number of collector units (default = 4)
-gpgpu_operand_collector_num_units_sfu                    4 # number of collector units (default = 4)
-gpgpu_operand_collector_num_units_mem                    8 # number of collector units (default = 2)
-gpgpu_operand_collector_num_units_gen                    0 # number of collector units (default = 0)
-gpgpu_operand_collector_num_in_ports_sp                    4 # number of collector unit in ports (default = 1)
-gpgpu_operand_collector_num_in_ports_sfu                    1 # number of collector unit in ports (default = 1)
-gpgpu_operand_collector_num_in_ports_mem                    1 # number of collector unit in ports (default = 1)
-gpgpu_operand_collector_num_in_ports_gen                    0 # number of collector unit in ports (default = 0)
-gpgpu_operand_collector_num_out_ports_sp                    4 # number of collector unit in ports (default = 1)
-gpgpu_operand_collector_num_out_ports_sfu                    1 # number of collector unit in ports (default = 1)
-gpgpu_operand_collector_num_out_ports_mem                    1 # number of collector unit in ports (default = 1)
-gpgpu_operand_collector_num_out_ports_gen                    0 # number of collector unit in ports (default = 0)
-gpgpu_coalesce_arch                   13 # Coalescing arch (default = 13, anything else is off for now)
-gpgpu_num_sched_per_core                    2 # Number of warp schedulers per core
-gpgpu_max_insn_issue_per_warp                    2 # Max number of instructions that can be issued per warp in one cycle by scheduler
-gpgpu_simt_core_sim_order                    1 # Select the simulation order of cores in a cluster (0=Fix, 1=Round-Robin)
-gpgpu_pipeline_widths        4,1,1,4,1,1,6 # Pipeline widths ID_OC_SP,ID_OC_SFU,ID_OC_MEM,OC_EX_SP,OC_EX_SFU,OC_EX_MEM,EX_WB
-gpgpu_num_sp_units                     4 # Number of SP units (default=1)
-gpgpu_num_sfu_units                    1 # Number of SF units (default=1)
-gpgpu_num_mem_units                    1 # Number if ldst units (default=1) WARNING: not hooked up to anything
-gpgpu_scheduler                      gto # Scheduler configuration: < lrr | gto | two_level_active > If two_level_active:<num_active_warps>:<inner_prioritization>:<outer_prioritization>For complete list of prioritization values see shader.h enum scheduler_prioritization_typeDefault: gto
-gpgpu_concurrent_kernel_sm                    0 # Support concurrent kernels on a SM (default = disabled)
-tlb_size                            4096 # Number of tlb entries per SM.
-gpgpu_dram_scheduler                    1 # 0 = fifo, 1 = FR-FCFS (defaul)
-gpgpu_dram_partition_queues              8:8:8:8 # i2$:$2d:d2$:$2i
-l2_ideal                               0 # Use a ideal L2 cache that always hit
-gpgpu_cache:dl2     64:128:16,L:B:m:W:L,A:1024:1024,4:0,32 # unified banked L2 data cache config  {<nsets>:<bsize>:<assoc>,<rep>:<wr>:<alloc>:<wr_alloc>,<mshr>:<N>:<merge>,<mq>}
-gpgpu_cache:dl2_texture_only                    0 # L2 cache used for texture only
-gpgpu_n_mem                           11 # number of memory modules (e.g. memory controllers) in gpu
-gpgpu_n_sub_partition_per_mchannel                    2 # number of memory subpartition in each memory module
-gpgpu_n_mem_per_ctrlr                    1 # number of memory chips per memory controller
-gpgpu_memlatency_stat                   14 # track and display latency statistics 0x2 enables MC, 0x4 enables queue logs
-gpgpu_frfcfs_dram_sched_queue_size                   64 # 0 = unlimited (default); # entries per chip
-gpgpu_dram_return_queue_size                  116 # 0 = unlimited (default); # entries per chip
-gpgpu_dram_buswidth                    4 # default = 4 bytes (8 bytes per cycle at DDR)
-gpgpu_dram_burst_length                    8 # Burst length of each DRAM request (default = 4 data bus cycle)
-dram_data_command_freq_ratio                    4 # Frequency ratio between DRAM data bus and command bus (default = 2 times, i.e. DDR)
-gpgpu_dram_timing_opt nbk=16:CCD=2:RRD=6:RCD=12:RAS=28:RP=12:RC=40: CL=12:WL=4:CDLR=5:WR=12:nbkgrp=1:CCDL=0:RTPL=0 # DRAM timing parameters = {nbk:tCCD:tRRD:tRCD:tRAS:tRP:tRC:CL:WL:tCDLR:tWR:nbkgrp:tCCDL:tRTPL}
-rop_latency                          120 # ROP queue latency (default 85)
-dram_latency                         100 # DRAM latency (default 30)
-gpgpu_mem_addr_mapping dramid@8;00000000.00000000.00000000.00000000.0000RRRR.RRRRRRRR.RBBBCCCC.BCCSSSSS # mapping memory address to dram model {dramid@<start bit>;<memory address map>}
-gpgpu_mem_addr_test                    0 # run sweep test to check address mapping for aliased address
-gpgpu_mem_address_mask                    1 # 0 = old addressing mask, 1 = new addressing mask, 2 = new add. mask + flipped bank sel and chip sel bits
-gpuwattch_xml_file  gpuwattch_geforcegtx1080ti.xml # GPUWattch XML file
-power_simulation_enabled                    1 # Turn on power simulator (1=On, 0=Off)
-power_per_cycle_dump                    0 # Dump detailed power output each cycle
-power_trace_enabled                    0 # produce a file for the power trace (1=On, 0=Off)
-power_trace_zlevel                     6 # Compression level of the power trace output log (0=no comp, 9=highest)
-steady_power_levels_enabled                    0 # produce a file for the steady power levels (1=On, 0=Off)
-steady_state_definition                  8:4 # allowed deviation:number of samples
-gpgpu_max_cycle                        0 # terminates gpu simulation early (0 = no limit)
-gpgpu_max_insn                         0 # terminates gpu simulation early (0 = no limit)
-gpgpu_max_cta                          0 # terminates gpu simulation early (0 = no limit)
-gpgpu_runtime_stat                   500 # display runtime statistics such as dram utilization {<freq>:<flag>}
-liveness_message_freq                    1 # Minimum number of seconds between simulation liveness messages (0 = always print)
-gpgpu_flush_l1_cache                    0 # Flush L1 cache at the end of each kernel call
-gpgpu_flush_l2_cache                    0 # Flush L2 cache at the end of each kernel call
-gpgpu_deadlock_detect                    0 # Stop the simulation at deadlock (1=on (default), 0=off)
-gpgpu_ptx_instruction_classification                    0 # if enabled will classify ptx instruction types per kernel (Max 255 kernels now)
-gpgpu_ptx_sim_mode                     0 # Select between Performance (default) or Functional simulation (1)
-gpgpu_clock_domains 1481.0:2962.0:1481.0:2750.0 # Clock Domain Frequencies in MhZ {<Core Clock>:<ICNT Clock>:<L2 Clock>:<DRAM Clock>}
-gpgpu_max_concurrent_kernel                    8 # maximum kernels that can run concurrently on GPU
-gpgpu_cflog_interval                    0 # Interval between each snapshot in control flow logger
-visualizer_enabled                     0 # Turn on visualizer output (1=On, 0=Off)
-visualizer_outputfile                 NULL # Specifies the output log file for visualizer
-visualizer_zlevel                      6 # Compression level of the visualizer output log (0=no comp, 9=highest)
-trace_enabled                          0 # Turn on traces
-trace_components                    none # comma seperated list of traces to enable. Complete list found in trace_streams.tup. Default none
-trace_sampling_core                    0 # The core which is printed using CORE_DPRINTF. Default 0
-trace_sampling_memory_partition                   -1 # The memory partition which is printed using MEMPART_DPRINTF. Default -1 (i.e. all)
-gddr_size                            1GB # Size of GDDR in MB/GB.(GLOBAL_HEAP_START, GLOBAL_HEAP_START + gddr_size) would be used for unmanged memory, (GLOBAL_HEAP_START + gddr_size, GLOBAL_HEAP_START + gddr_size*2) would be used for managed memory. 
-page_table_walk_latency                  100 # Average page table walk latency (in core cycle).
-eviction_policy                      lru # Memory eviction policy: lru or random.
-percentage_of_free_page_buffer                    0 # Percentage of free page buffer to trigger the page eviction.
-page_size                            4KB # GDDR page size, only 4KB/2MB avaliable.
-pcie_bandwith                   32.0GB/s # PCI-e bandwith per direction, in GB/s.
-sim_prof_enable                        1 # Enable gpgpu-sim profiler
-hardware_prefetch                      1 # Enable gpgpu-sim hardware prefetcher
-page_fault_latency                 66645 # Average fault latency (in core cycle).
-enable_accurate_simulation                    0 # Enable page fault functional simulation.
-enable_ptx_file_line_stats                    1 # Turn on PTX source line statistic profiling. (1 = On)
-ptx_line_stats_filename gpgpu_inst_stats.txt # Output file for PTX source line statistics.
-gpgpu_kernel_launch_latency               222150 # Kernel launch latency in cycles. Default: 0
-gpgpu_cdp_enabled                      0 # Turn on CDP
-save_embedded_ptx                      0 # saves ptx files embedded in binary as <n>.ptx
-keep                                   0 # keep intermediate files created by GPGPU-Sim when interfacing with external programs
-gpgpu_ptx_save_converted_ptxplus                    0 # Saved converted ptxplus to a file
-ptx_opcode_latency_int         4,13,4,5,145 # Opcode latencies for integers <ADD,MAX,MUL,MAD,DIV>Default 1,1,19,25,145
-ptx_opcode_latency_fp          4,13,4,5,39 # Opcode latencies for single precision floating points <ADD,MAX,MUL,MAD,DIV>Default 1,1,1,1,30
-ptx_opcode_latency_dp         8,19,8,8,330 # Opcode latencies for double precision floating points <ADD,MAX,MUL,MAD,DIV>Default 8,8,8,8,335
-ptx_opcode_initiation_int            1,2,2,2,8 # Opcode initiation intervals for integers <ADD,MAX,MUL,MAD,DIV>Default 1,1,4,4,32
-ptx_opcode_initiation_fp            1,2,1,1,4 # Opcode initiation intervals for single precision floating points <ADD,MAX,MUL,MAD,DIV>Default 1,1,1,1,5
-ptx_opcode_initiation_dp          1,2,1,1,130 # Opcode initiation intervals for double precision floating points <ADD,MAX,MUL,MAD,DIV>Default 8,8,8,8,130
-cdp_latency         7200,8000,100,12000,1600 # CDP API latency <cudaStreamCreateWithFlags, cudaGetParameterBufferV2_init_perWarp, cudaGetParameterBufferV2_perKernel, cudaLaunchDeviceV2_init_perWarp, cudaLaunchDevicV2_perKernel>Default 7200,8000,100,12000,1600
DRAM Timing Options:
nbk                                    16 # number of banks
CCD                                     2 # column to column delay
RRD                                     6 # minimal delay between activation of rows in different banks
RCD                                    12 # row to column delay
RAS                                    28 # time needed to activate row
RP                                     12 # time needed to precharge (deactivate) row
RC                                     40 # row cycle time
CDLR                                    5 # switching from write to read (changes tWTR)
WR                                     12 # last data-in to row precharge
CL                                     12 # CAS latency
WL                                      4 # Write latency
nbkgrp                                  1 # number of bank groups
CCDL                                    0 # column to column delay between accesses to different bank groups
RTPL                                    0 # read to precharge delay between accesses to different bank groups
Total number of memory sub partition = 22
addr_dec_mask[CHIP]  = 0000000000000000 	high:64 low:0
addr_dec_mask[BK]    = 0000000000007080 	high:15 low:7
addr_dec_mask[ROW]   = 000000000fff8000 	high:28 low:15
addr_dec_mask[COL]   = 0000000000000f7f 	high:12 low:0
addr_dec_mask[BURST] = 000000000000001f 	high:5 low:0
sub_partition_id_mask = 0000000000000080
GPGPU-Sim uArch: clock freqs: 1481000000.000000:2962000000.000000:1481000000.000000:2750000000.000000
GPGPU-Sim uArch: clock periods: 0.00000000067521944632:0.00000000033760972316:0.00000000067521944632:0.00000000036363636364
*** Initializing Memory Statistics ***
GPGPU-Sim uArch: interconnect node map (shaderID+MemID to icntID)
GPGPU-Sim uArch: Memory nodes ID start from index: 28
GPGPU-Sim uArch:    0   1   2   3   4   5   6
GPGPU-Sim uArch:    7   8   9  10  11  12  13
GPGPU-Sim uArch:   14  15  16  17  18  19  20
GPGPU-Sim uArch:   21  22  23  24  25  26  27
GPGPU-Sim uArch:   28  29  30  31  32  33  34
GPGPU-Sim uArch:   35  36  37  38  39  40  41
GPGPU-Sim uArch:   42  43  44  45  46  47  48
GPGPU-Sim uArch:   49
GPGPU-Sim uArch: interconnect node reverse map (icntID to shaderID+MemID)
GPGPU-Sim uArch: Memory nodes start from ID: 28
GPGPU-Sim uArch:    0   1   2   3   4   5   6
GPGPU-Sim uArch:    7   8   9  10  11  12  13
GPGPU-Sim uArch:   14  15  16  17  18  19  20
GPGPU-Sim uArch:   21  22  23  24  25  26  27
GPGPU-Sim uArch:   28  29  30  31  32  33  34
GPGPU-Sim uArch:   35  36  37  38  39  40  41
GPGPU-Sim uArch:   42  43  44  45  46  47  48
GPGPU-Sim uArch:   49
ccf5915b83b544fce98b22fd8335f33b  /home/moh18/gpgpu-sim_UVM_pcie4.0/benchmarks/Managed/bfs/bfs
GPGPU-Sim uArch: performance model initialization complete.
GPGPU-Sim PTX: __cudaRegisterFatBinary, fat_cubin_handle = 1, filename=default
self exe links to: /home/moh18/gpgpu-sim_UVM_pcie4.0/benchmarks/Managed/bfs/bfs
Running md5sum using "md5sum /home/moh18/gpgpu-sim_UVM_pcie4.0/benchmarks/Managed/bfs/bfs "
Parsing file _cuobjdump_complete_output_riBAF4
######### cuobjdump parser ########
## Adding new section ELF
Adding arch: sm_20
Adding identifier: default
## Adding new section ELF
Adding arch: sm_20
Adding identifier: default
## Adding new section PTX
Adding ptx filename: _cuobjdump_1.ptx
Adding arch: sm_20
Adding identifier: default
Done parsing!!!
GPGPU-Sim PTX: __cudaRegisterFunction _Z7Kernel2PbS_S_S_i : hostFun 0x0x401649, fat_cubin_handle = 1
GPGPU-Sim PTX: instruction assembly for function '_Z6KernelP4NodePiPbS2_S2_S1_i'...   done.
GPGPU-Sim PTX: finding reconvergence points for '_Z6KernelP4NodePiPbS2_S2_S1_i'...
GPGPU-Sim PTX: Finding dominators for '_Z6KernelP4NodePiPbS2_S2_S1_i'...
GPGPU-Sim PTX: Finding immediate dominators for '_Z6KernelP4NodePiPbS2_S2_S1_i'...
GPGPU-Sim PTX: Finding postdominators for '_Z6KernelP4NodePiPbS2_S2_S1_i'...
GPGPU-Sim PTX: Finding immediate postdominators for '_Z6KernelP4NodePiPbS2_S2_S1_i'...
GPGPU-Sim PTX: pre-decoding instructions for '_Z6KernelP4NodePiPbS2_S2_S1_i'...
GPGPU-Sim PTX: reconvergence points for _Z6KernelP4NodePiPbS2_S2_S1_i...
GPGPU-Sim PTX:  1 (potential) branch divergence @  PC=0x060 (_1.ptx:42) @%p1 bra BB0_7;
GPGPU-Sim PTX:    immediate post dominator      @  PC=0x1e8 (_1.ptx:101) ret;
GPGPU-Sim PTX:  2 (potential) branch divergence @  PC=0x090 (_1.ptx:49) @%p2 bra BB0_7;
GPGPU-Sim PTX:    immediate post dominator      @  PC=0x1e8 (_1.ptx:101) ret;
GPGPU-Sim PTX:  3 (potential) branch divergence @  PC=0x0d8 (_1.ptx:59) @%p3 bra BB0_7;
GPGPU-Sim PTX:    immediate post dominator      @  PC=0x1e8 (_1.ptx:101) ret;
GPGPU-Sim PTX:  4 (potential) branch divergence @  PC=0x160 (_1.ptx:79) @%p4 bra BB0_6;
GPGPU-Sim PTX:    immediate post dominator      @  PC=0x1b8 (_1.ptx:93) mov.u32 %r24, %r25;
GPGPU-Sim PTX:  5 (potential) branch divergence @  PC=0x1e0 (_1.ptx:98) @%p5 bra BB0_4;
GPGPU-Sim PTX:    immediate post dominator      @  PC=0x1e8 (_1.ptx:101) ret;
GPGPU-Sim PTX: ... end of reconvergence points for _Z6KernelP4NodePiPbS2_S2_S1_i
GPGPU-Sim PTX: ... done pre-decoding instructions for '_Z6KernelP4NodePiPbS2_S2_S1_i'.
GPGPU-Sim PTX: instruction assembly for function '_Z7Kernel2PbS_S_S_i'...   done.
GPGPU-Sim PTX: finding reconvergence points for '_Z7Kernel2PbS_S_S_i'...
GPGPU-Sim PTX: Finding dominators for '_Z7Kernel2PbS_S_S_i'...
GPGPU-Sim PTX: Finding immediate dominators for '_Z7Kernel2PbS_S_S_i'...
GPGPU-Sim PTX: Finding postdominators for '_Z7Kernel2PbS_S_S_i'...
GPGPU-Sim PTX: Finding immediate postdominators for '_Z7Kernel2PbS_S_S_i'...
GPGPU-Sim PTX: pre-decoding instructions for '_Z7Kernel2PbS_S_S_i'...
GPGPU-Sim PTX: reconvergence points for _Z7Kernel2PbS_S_S_i...
GPGPU-Sim PTX:  1 (potential) branch divergence @  PC=0x240 (_1.ptx:129) @%p1 bra BB1_3;
GPGPU-Sim PTX:    immediate post dominator      @  PC=0x2d0 (_1.ptx:151) ret;
GPGPU-Sim PTX:  2 (potential) branch divergence @  PC=0x270 (_1.ptx:136) @%p2 bra BB1_3;
GPGPU-Sim PTX:    immediate post dominator      @  PC=0x2d0 (_1.ptx:151) ret;
GPGPU-Sim PTX: ... end of reconvergence points for _Z7Kernel2PbS_S_S_i
GPGPU-Sim PTX: ... done pre-decoding instructions for '_Z7Kernel2PbS_S_S_i'.
GPGPU-Sim PTX: finished parsing EMBEDDED .ptx file _1.ptx
Adding _cuobjdump_1.ptx with cubin handle 1
GPGPU-Sim PTX: extracting embedded .ptx to temporary file "_ptx_VR9FHW"
Running: cat _ptx_VR9FHW | sed 's/.version 1.5/.version 1.4/' | sed 's/, texmode_independent//' | sed 's/\(\.extern \.const\[1\] .b8 \w\+\)\[\]/\1\[1\]/' | sed 's/const\[.\]/const\[0\]/g' > _ptx2_bM9MJO
GPGPU-Sim PTX: generating ptxinfo using "$CUDA_INSTALL_PATH/bin/ptxas --gpu-name=sm_20 -v _ptx2_bM9MJO --output-file  /dev/null 2> _ptx_VR9FHWinfo"
GPGPU-Sim PTX: Kernel '_Z7Kernel2PbS_S_S_i' : regs=12, lmem=0, smem=0, cmem=68
GPGPU-Sim PTX: Kernel '_Z6KernelP4NodePiPbS2_S2_S1_i' : regs=15, lmem=0, smem=0, cmem=84
GPGPU-Sim PTX: removing ptxinfo using "rm -f _ptx_VR9FHW _ptx2_bM9MJO _ptx_VR9FHWinfo"
GPGPU-Sim PTX: loading globals with explicit initializers... 
GPGPU-Sim PTX: finished loading globals (0 bytes total).
GPGPU-Sim PTX: loading constants with explicit initializers...  done.
GPGPU-Sim PTX: __cudaRegisterFunction _Z6KernelP4NodePiPbS2_S2_S1_i : hostFun 0x0x401519, fat_cubin_handle = 1
Reading File
Read File
Copied Everything to GPU memory
Start traversing the tree

GPGPU-Sim PTX: cudaLaunch for 0x0x401519 (mode=performance simulation) on stream 0
GPGPU-Sim PTX: pushing kernel '_Z6KernelP4NodePiPbS2_S2_S1_i' to stream 0, gridDim= (128,1,1) blockDim = (512,1,1) 
GPGPU-Sim uArch: Shader 1 bind to kernel 1 '_Z6KernelP4NodePiPbS2_S2_S1_i'
GPGPU-Sim uArch: CTA/core = 4, limited by: threads
GPGPU-Sim uArch: Shader 2 bind to kernel 1 '_Z6KernelP4NodePiPbS2_S2_S1_i'
GPGPU-Sim uArch: Shader 3 bind to kernel 1 '_Z6KernelP4NodePiPbS2_S2_S1_i'
GPGPU-Sim uArch: Shader 4 bind to kernel 1 '_Z6KernelP4NodePiPbS2_S2_S1_i'
GPGPU-Sim uArch: Shader 5 bind to kernel 1 '_Z6KernelP4NodePiPbS2_S2_S1_i'
GPGPU-Sim uArch: Shader 6 bind to kernel 1 '_Z6KernelP4NodePiPbS2_S2_S1_i'
GPGPU-Sim uArch: Shader 7 bind to kernel 1 '_Z6KernelP4NodePiPbS2_S2_S1_i'
GPGPU-Sim uArch: Shader 8 bind to kernel 1 '_Z6KernelP4NodePiPbS2_S2_S1_i'
GPGPU-Sim uArch: Shader 9 bind to kernel 1 '_Z6KernelP4NodePiPbS2_S2_S1_i'
GPGPU-Sim uArch: Shader 10 bind to kernel 1 '_Z6KernelP4NodePiPbS2_S2_S1_i'
GPGPU-Sim uArch: Shader 11 bind to kernel 1 '_Z6KernelP4NodePiPbS2_S2_S1_i'
GPGPU-Sim uArch: Shader 12 bind to kernel 1 '_Z6KernelP4NodePiPbS2_S2_S1_i'
GPGPU-Sim uArch: Shader 13 bind to kernel 1 '_Z6KernelP4NodePiPbS2_S2_S1_i'
GPGPU-Sim uArch: Shader 14 bind to kernel 1 '_Z6KernelP4NodePiPbS2_S2_S1_i'
GPGPU-Sim uArch: Shader 15 bind to kernel 1 '_Z6KernelP4NodePiPbS2_S2_S1_i'
GPGPU-Sim uArch: Shader 16 bind to kernel 1 '_Z6KernelP4NodePiPbS2_S2_S1_i'
GPGPU-Sim uArch: Shader 17 bind to kernel 1 '_Z6KernelP4NodePiPbS2_S2_S1_i'
GPGPU-Sim uArch: Shader 18 bind to kernel 1 '_Z6KernelP4NodePiPbS2_S2_S1_i'
GPGPU-Sim uArch: Shader 19 bind to kernel 1 '_Z6KernelP4NodePiPbS2_S2_S1_i'
GPGPU-Sim uArch: Shader 20 bind to kernel 1 '_Z6KernelP4NodePiPbS2_S2_S1_i'
GPGPU-Sim uArch: Shader 21 bind to kernel 1 '_Z6KernelP4NodePiPbS2_S2_S1_i'
GPGPU-Sim uArch: Shader 22 bind to kernel 1 '_Z6KernelP4NodePiPbS2_S2_S1_i'
GPGPU-Sim uArch: Shader 23 bind to kernel 1 '_Z6KernelP4NodePiPbS2_S2_S1_i'
GPGPU-Sim uArch: Shader 24 bind to kernel 1 '_Z6KernelP4NodePiPbS2_S2_S1_i'
GPGPU-Sim uArch: Shader 25 bind to kernel 1 '_Z6KernelP4NodePiPbS2_S2_S1_i'
GPGPU-Sim uArch: Shader 26 bind to kernel 1 '_Z6KernelP4NodePiPbS2_S2_S1_i'
GPGPU-Sim uArch: Shader 27 bind to kernel 1 '_Z6KernelP4NodePiPbS2_S2_S1_i'
GPGPU-Sim uArch: Shader 0 bind to kernel 1 '_Z6KernelP4NodePiPbS2_S2_S1_i'
Destroy streams for kernel 1: size 0
kernel_name = _Z6KernelP4NodePiPbS2_S2_S1_i 
kernel_launch_uid = 1 
gpu_sim_cycle = 46994
gpu_sim_insn = 1245376
gpu_ipc =      26.5007
gpu_tot_sim_cycle = 270412
gpu_tot_sim_insn = 1245376
gpu_tot_ipc =       4.6055
gpu_tot_issued_cta = 128
max_total_param_size = 0
gpu_stall_dramfull = 0
gpu_stall_icnt2sh    = 2759
partiton_reqs_in_parallel = 1033868
partiton_reqs_in_parallel_total    = 0
partiton_level_parallism =      22.0000
partiton_level_parallism_total  =       3.8233
partiton_reqs_in_parallel_util = 1033868
partiton_reqs_in_parallel_util_total    = 0
gpu_sim_cycle_parition_util = 46994
gpu_tot_sim_cycle_parition_util    = 0
partiton_level_parallism_util =      22.0000
partiton_level_parallism_util_total  =      22.0000
partiton_replys_in_parallel = 2220
partiton_replys_in_parallel_total    = 0
L2_BW  =       4.4776 GB/Sec
L2_BW_total  =       0.7781 GB/Sec
gpu_total_sim_rate=7282

========= Core cache stats =========
L1I_cache:
	L1I_total_cache_accesses = 22632
	L1I_total_cache_misses = 2778
	L1I_total_cache_miss_rate = 0.1227
	L1I_total_cache_pending_hits = 0
	L1I_total_cache_reservation_fails = 6846
L1D_cache:
	L1D_cache_core[0]: Access = 0, Miss = 0, Miss_rate = -nan, Pending_hits = 0, Reservation_fails = 0
	L1D_cache_core[1]: Access = 0, Miss = 0, Miss_rate = -nan, Pending_hits = 0, Reservation_fails = 0
	L1D_cache_core[2]: Access = 0, Miss = 0, Miss_rate = -nan, Pending_hits = 0, Reservation_fails = 0
	L1D_cache_core[3]: Access = 0, Miss = 0, Miss_rate = -nan, Pending_hits = 0, Reservation_fails = 0
	L1D_cache_core[4]: Access = 0, Miss = 0, Miss_rate = -nan, Pending_hits = 0, Reservation_fails = 0
	L1D_cache_core[5]: Access = 0, Miss = 0, Miss_rate = -nan, Pending_hits = 0, Reservation_fails = 0
	L1D_cache_core[6]: Access = 0, Miss = 0, Miss_rate = -nan, Pending_hits = 0, Reservation_fails = 0
	L1D_cache_core[7]: Access = 0, Miss = 0, Miss_rate = -nan, Pending_hits = 0, Reservation_fails = 0
	L1D_cache_core[8]: Access = 0, Miss = 0, Miss_rate = -nan, Pending_hits = 0, Reservation_fails = 0
	L1D_cache_core[9]: Access = 0, Miss = 0, Miss_rate = -nan, Pending_hits = 0, Reservation_fails = 0
	L1D_cache_core[10]: Access = 0, Miss = 0, Miss_rate = -nan, Pending_hits = 0, Reservation_fails = 0
	L1D_cache_core[11]: Access = 0, Miss = 0, Miss_rate = -nan, Pending_hits = 0, Reservation_fails = 0
	L1D_cache_core[12]: Access = 0, Miss = 0, Miss_rate = -nan, Pending_hits = 0, Reservation_fails = 0
	L1D_cache_core[13]: Access = 0, Miss = 0, Miss_rate = -nan, Pending_hits = 0, Reservation_fails = 0
	L1D_cache_core[14]: Access = 0, Miss = 0, Miss_rate = -nan, Pending_hits = 0, Reservation_fails = 0
	L1D_cache_core[15]: Access = 0, Miss = 0, Miss_rate = -nan, Pending_hits = 0, Reservation_fails = 0
	L1D_cache_core[16]: Access = 0, Miss = 0, Miss_rate = -nan, Pending_hits = 0, Reservation_fails = 0
	L1D_cache_core[17]: Access = 0, Miss = 0, Miss_rate = -nan, Pending_hits = 0, Reservation_fails = 0
	L1D_cache_core[18]: Access = 0, Miss = 0, Miss_rate = -nan, Pending_hits = 0, Reservation_fails = 0
	L1D_cache_core[19]: Access = 0, Miss = 0, Miss_rate = -nan, Pending_hits = 0, Reservation_fails = 0
	L1D_cache_core[20]: Access = 0, Miss = 0, Miss_rate = -nan, Pending_hits = 0, Reservation_fails = 0
	L1D_cache_core[21]: Access = 0, Miss = 0, Miss_rate = -nan, Pending_hits = 0, Reservation_fails = 0
	L1D_cache_core[22]: Access = 0, Miss = 0, Miss_rate = -nan, Pending_hits = 0, Reservation_fails = 0
	L1D_cache_core[23]: Access = 0, Miss = 0, Miss_rate = -nan, Pending_hits = 0, Reservation_fails = 0
	L1D_cache_core[24]: Access = 0, Miss = 0, Miss_rate = -nan, Pending_hits = 0, Reservation_fails = 0
	L1D_cache_core[25]: Access = 0, Miss = 0, Miss_rate = -nan, Pending_hits = 0, Reservation_fails = 0
	L1D_cache_core[26]: Access = 0, Miss = 0, Miss_rate = -nan, Pending_hits = 0, Reservation_fails = 0
	L1D_cache_core[27]: Access = 0, Miss = 0, Miss_rate = -nan, Pending_hits = 0, Reservation_fails = 0
	L1D_total_cache_accesses = 0
	L1D_total_cache_misses = 0
	L1D_total_cache_pending_hits = 0
	L1D_total_cache_reservation_fails = 0
	L1D_cache_data_port_util = 0.000
	L1D_cache_fill_port_util = 0.000
L1C_cache:
	L1C_total_cache_accesses = 14336
	L1C_total_cache_misses = 1792
	L1C_total_cache_miss_rate = 0.1250
	L1C_total_cache_pending_hits = 0
	L1C_total_cache_reservation_fails = 4886
L1T_cache:
	L1T_total_cache_accesses = 0
	L1T_total_cache_misses = 0
	L1T_total_cache_pending_hits = 0
	L1T_total_cache_reservation_fails = 0

Total_core_cache_stats:
	Total_core_cache_stats_breakdown[GLOBAL_ACC_R][HIT] = 0
	Total_core_cache_stats_breakdown[GLOBAL_ACC_R][HIT_RESERVED] = 0
	Total_core_cache_stats_breakdown[GLOBAL_ACC_R][MISS] = 0
	Total_core_cache_stats_breakdown[GLOBAL_ACC_R][RESERVATION_FAIL] = 0
	Total_core_cache_stats_breakdown[LOCAL_ACC_R][HIT] = 0
	Total_core_cache_stats_breakdown[LOCAL_ACC_R][HIT_RESERVED] = 0
	Total_core_cache_stats_breakdown[LOCAL_ACC_R][MISS] = 0
	Total_core_cache_stats_breakdown[LOCAL_ACC_R][RESERVATION_FAIL] = 0
	Total_core_cache_stats_breakdown[CONST_ACC_R][HIT] = 12544
	Total_core_cache_stats_breakdown[CONST_ACC_R][HIT_RESERVED] = 0
	Total_core_cache_stats_breakdown[CONST_ACC_R][MISS] = 1792
	Total_core_cache_stats_breakdown[CONST_ACC_R][RESERVATION_FAIL] = 4886
	Total_core_cache_stats_breakdown[TEXTURE_ACC_R][HIT] = 0
	Total_core_cache_stats_breakdown[TEXTURE_ACC_R][HIT_RESERVED] = 0
	Total_core_cache_stats_breakdown[TEXTURE_ACC_R][MISS] = 0
	Total_core_cache_stats_breakdown[TEXTURE_ACC_R][RESERVATION_FAIL] = 0
	Total_core_cache_stats_breakdown[GLOBAL_ACC_W][HIT] = 0
	Total_core_cache_stats_breakdown[GLOBAL_ACC_W][HIT_RESERVED] = 0
	Total_core_cache_stats_breakdown[GLOBAL_ACC_W][MISS] = 0
	Total_core_cache_stats_breakdown[GLOBAL_ACC_W][RESERVATION_FAIL] = 0
	Total_core_cache_stats_breakdown[LOCAL_ACC_W][HIT] = 0
	Total_core_cache_stats_breakdown[LOCAL_ACC_W][HIT_RESERVED] = 0
	Total_core_cache_stats_breakdown[LOCAL_ACC_W][MISS] = 0
	Total_core_cache_stats_breakdown[LOCAL_ACC_W][RESERVATION_FAIL] = 0
	Total_core_cache_stats_breakdown[L1_WRBK_ACC][HIT] = 0
	Total_core_cache_stats_breakdown[L1_WRBK_ACC][HIT_RESERVED] = 0
	Total_core_cache_stats_breakdown[L1_WRBK_ACC][MISS] = 0
	Total_core_cache_stats_breakdown[L1_WRBK_ACC][RESERVATION_FAIL] = 0
	Total_core_cache_stats_breakdown[L2_WRBK_ACC][HIT] = 0
	Total_core_cache_stats_breakdown[L2_WRBK_ACC][HIT_RESERVED] = 0
	Total_core_cache_stats_breakdown[L2_WRBK_ACC][MISS] = 0
	Total_core_cache_stats_breakdown[L2_WRBK_ACC][RESERVATION_FAIL] = 0
	Total_core_cache_stats_breakdown[INST_ACC_R][HIT] = 19854
	Total_core_cache_stats_breakdown[INST_ACC_R][HIT_RESERVED] = 0
	Total_core_cache_stats_breakdown[INST_ACC_R][MISS] = 2778
	Total_core_cache_stats_breakdown[INST_ACC_R][RESERVATION_FAIL] = 6846
	Total_core_cache_stats_breakdown[L1_WR_ALLOC_R][HIT] = 0
	Total_core_cache_stats_breakdown[L1_WR_ALLOC_R][HIT_RESERVED] = 0
	Total_core_cache_stats_breakdown[L1_WR_ALLOC_R][MISS] = 0
	Total_core_cache_stats_breakdown[L1_WR_ALLOC_R][RESERVATION_FAIL] = 0
	Total_core_cache_stats_breakdown[L2_WR_ALLOC_R][HIT] = 0
	Total_core_cache_stats_breakdown[L2_WR_ALLOC_R][HIT_RESERVED] = 0
	Total_core_cache_stats_breakdown[L2_WR_ALLOC_R][MISS] = 0
	Total_core_cache_stats_breakdown[L2_WR_ALLOC_R][RESERVATION_FAIL] = 0
	Total_core_cache_stats_breakdown[CONST_ACC_R][TOTAL_ACCESS] = 14336
	Total_core_cache_stats_breakdown[INST_ACC_R][TOTAL_ACCESS] = 22632
Shader 0 warp_id issue ditsribution:
warp_id:
0, 1, 2, 3, 4, 5, 6, 7, 8, 9, 10, 11, 12, 13, 14, 15, 16, 17, 18, 19, 20, 21, 22, 23, 24, 25, 26, 27, 28, 29, 30, 31, 32, 33, 34, 35, 36, 37, 38, 39, 40, 41, 42, 43, 44, 45, 46, 47, 48, 49, 50, 51, 52, 53, 54, 55, 56, 57, 58, 59, 60, 61, 62, 63, 
distro:
23, 23, 22, 23, 22, 23, 22, 23, 23, 23, 23, 23, 23, 23, 23, 23, 23, 23, 23, 23, 23, 23, 23, 23, 23, 23, 23, 23, 23, 23, 23, 23, 23, 23, 23, 23, 23, 23, 23, 23, 23, 23, 23, 23, 23, 23, 23, 23, 23, 23, 23, 23, 23, 23, 23, 23, 23, 23, 23, 23, 23, 23, 23, 23, 
gpgpu_n_tot_thrd_icount = 1317216
gpgpu_n_tot_w_icount = 41163
gpgpu_n_stall_shd_mem = 5424
gpgpu_n_mem_read_local = 0
gpgpu_n_mem_write_local = 0
gpgpu_n_mem_read_global = 2090
gpgpu_n_mem_write_global = 17
gpgpu_n_mem_texture = 0
gpgpu_n_mem_const = 28
gpgpu_n_load_insn  = 65578
gpgpu_n_store_insn = 17
gpgpu_n_shmem_insn = 0
gpgpu_n_tex_insn = 0
gpgpu_n_const_mem_insn = 0
gpgpu_n_param_mem_insn = 458752
gpgpu_n_shmem_bkconflict = 0
gpgpu_n_cache_bkconflict = 0
gpgpu_n_intrawarp_mshr_merge = 0
gpgpu_n_cmem_portconflict = 4886
gpgpu_stall_shd_mem[c_mem][bk_conf] = 4886
gpgpu_stall_shd_mem[c_mem][mshr_rc] = 0
gpgpu_stall_shd_mem[c_mem][icnt_rc] = 0
gpgpu_stall_shd_mem[c_mem][data_port_stall] = 0
gpgpu_stall_shd_mem[t_mem][mshr_rc] = 0
gpgpu_stall_shd_mem[t_mem][icnt_rc] = 0
gpgpu_stall_shd_mem[t_mem][data_port_stall] = 0
gpgpu_stall_shd_mem[s_mem][bk_conf] = 0
gpgpu_stall_shd_mem[gl_mem][bk_conf] = 0
gpgpu_stall_shd_mem[gl_mem][coal_stall] = 0
gpgpu_stall_shd_mem[gl_mem][data_port_stall] = 0
gpgpu_stall_shd_mem[g_mem_ld][mshr_rc] = 0
gpgpu_stall_shd_mem[g_mem_ld][icnt_rc] = 538
gpgpu_stall_shd_mem[g_mem_ld][wb_icnt_rc] = 0
gpgpu_stall_shd_mem[g_mem_ld][wb_rsrv_fail] = 0
gpgpu_stall_shd_mem[g_mem_st][mshr_rc] = 0
gpgpu_stall_shd_mem[g_mem_st][icnt_rc] = 0
gpgpu_stall_shd_mem[g_mem_st][wb_icnt_rc] = 0
gpgpu_stall_shd_mem[g_mem_st][wb_rsrv_fail] = 0
gpgpu_stall_shd_mem[l_mem_ld][mshr_rc] = 0
gpgpu_stall_shd_mem[l_mem_ld][icnt_rc] = 0
gpgpu_stall_shd_mem[l_mem_ld][wb_icnt_rc] = 0
gpgpu_stall_shd_mem[l_mem_ld][wb_rsrv_fail] = 0
gpgpu_stall_shd_mem[l_mem_st][mshr_rc] = 0
gpgpu_stall_shd_mem[l_mem_st][icnt_rc] = 0
gpgpu_stall_shd_mem[l_mem_ld][wb_icnt_rc] = 0
gpgpu_stall_shd_mem[l_mem_ld][wb_rsrv_fail] = 0
gpu_reg_bank_conflict_stalls = 0
Warp Occupancy Distribution:
Stall:16034	W0_Idle:75642	W0_Scoreboard:318557	W1:203	W2:0	W3:0	W4:0	W5:0	W6:0	W7:0	W8:0	W9:0	W10:0	W11:0	W12:0	W13:0	W14:0	W15:0	W16:0	W17:0	W18:0	W19:0	W20:0	W21:0	W22:0	W23:0	W24:0	W25:0	W26:0	W27:0	W28:0	W29:0	W30:0	W31:0	W32:40960
traffic_breakdown_coretomem[CONST_ACC_R] = 224 {8:28,}
traffic_breakdown_coretomem[GLOBAL_ACC_R] = 16720 {8:2090,}
traffic_breakdown_coretomem[GLOBAL_ACC_W] = 680 {40:17,}
traffic_breakdown_coretomem[INST_ACC_R] = 680 {8:85,}
traffic_breakdown_memtocore[CONST_ACC_R] = 2016 {72:28,}
traffic_breakdown_memtocore[GLOBAL_ACC_R] = 83600 {40:2090,}
traffic_breakdown_memtocore[GLOBAL_ACC_W] = 136 {8:17,}
traffic_breakdown_memtocore[INST_ACC_R] = 11560 {136:85,}
maxmrqlatency = 85 
maxdqlatency = 0 
maxmflatency = 18321 
averagemflatency = 4189 
max_icnt2mem_latency = 18086 
max_icnt2sh_latency = 270411 
mrq_lat_table:157 	28 	51 	98 	54 	124 	48 	0 	0 	0 	0 	0 	0 	0 	0 	0 	0 	0 	0 	0 	0 	0 	0 	0 	0 	0 	0 	0 	0 	0 	0 	0 	
dq_lat_table:0 	0 	0 	0 	0 	0 	0 	0 	0 	0 	0 	0 	0 	0 	0 	0 	0 	0 	0 	0 	0 	0 	0 	0 	0 	0 	0 	0 	0 	0 	0 	0 	
mf_lat_table:0 	0 	0 	0 	0 	0 	0 	62 	5 	0 	242 	530 	1289 	6 	1 	0 	0 	0 	0 	0 	0 	0 	0 	0 	0 	0 	0 	0 	0 	0 	0 	0 	
icnt2mem_lat_table:0 	0 	101 	23 	23 	0 	5 	0 	0 	0 	512 	261 	1289 	5 	1 	0 	0 	0 	0 	0 	0 	0 	0 	0 	
icnt2sh_lat_table:0 	0 	519 	1035 	555 	9 	0 	0 	0 	0 	0 	0 	0 	0 	0 	0 	0 	13 	4 	0 	0 	0 	0 	0 	
mf_lat_pw_table:0 	0 	0 	0 	0 	0 	0 	13 	0 	0 	2 	3 	5 	2 	0 	0 	0 	0 	0 	0 	0 	0 	0 	0 	0 	0 	0 	0 	0 	0 	0 	0 	
maximum concurrent accesses to same row:
dram[0]:         0         0         0         0         0         0         0         0         0         0         0         0         0         0         0         0 
dram[1]:         0         0         0         0         0         0         0         0         0         0         1         0         0         0         0         0 
dram[2]:         0         0         0         0         0        15         0         0         0         0         0         0         0         0         0         0 
dram[3]:         0         0         0         0         0         0         0         0         0         0         0         0         0         0         0         0 
dram[4]:         0         0         0         0         0         0         0         0         0         0         0         0         0         0         0         0 
dram[5]:         0         0         0         0         0         0         0         0         0         0         0         0         0         0         0         0 
dram[6]:         0         0         0         0         0         0         0         0         0         0         0         0         0         0         0         0 
dram[7]:         0         0         0         0         0         0         0         0         0         0         0         0         0         0         0         0 
dram[8]:         0         0         9         0         0         0         0         0         0         0         0         0         0         0         0         0 
dram[9]:         0         0         0         0         0         0         0         0         0         0         0         0         0         0         0         0 
dram[10]:         0         0         0         0         0         0         0         0         0         0         0         0         0         0         0         0 
maximum service time to same row:
dram[0]:         0         0      2866      2869      6298      6303         0         0         0         0         0         0         0         0         0         0 
dram[1]:         0         0      2866      2868      6300      6300         0         0         0     32865      7599     27712         0         0         0         0 
dram[2]:         0         0      2866      2869      6299     30678     32857         0     29235         0         0         0         0         0         0         0 
dram[3]:         0         0      2866      2869      6299      6300         0     29426     32863         0         0         0     42861         0         0         0 
dram[4]:         0         0      2866      2867      6298      6301     29427         0         0         0         0     24303         0         0       228       789 
dram[5]:         0         0      2866      2866      6299      6304     32860         0     27728         0         0         0     42863         0      7862      3124 
dram[6]:         0         0      2866      2866      6298      6301         0         0         0     25159     26015     28481         0         0         0     42864 
dram[7]:         0         0      2866      2866      6299      6304         0         0     18856         0         0         0         0         0         0         0 
dram[8]:         0         0     34112      2868      6298      6301         0         0         0         0     26871         0         0         0         0         0 
dram[9]:         0         0      2866      2869      6299      6304         0         0     23590         0         0         0         0         0         0         0 
dram[10]:         0         0      2866      2868      6298      6301     32859         0         0         0     27710         0         0         0         0     46981 
average row accesses per activate:
dram[0]:       inf      -nan  8.000000  8.000000 15.000000 15.000000      -nan      -nan      -nan      -nan      -nan      -nan      -nan      -nan      -nan      -nan 
dram[1]:      -nan      -nan  8.000000  8.000000 15.000000 15.000000      -nan      -nan      -nan  2.000000  1.000000  2.000000      -nan      -nan      -nan      -nan 
dram[2]:      -nan      -nan  8.000000  8.000000 15.000000  8.500000  2.000000      -nan  1.000000      -nan      -nan      -nan      -nan      -nan      -nan      -nan 
dram[3]:      -nan      -nan  9.000000  9.000000 15.000000 15.000000      -nan  4.000000  2.000000      -nan      -nan      -nan  2.000000      -nan      -nan      -nan 
dram[4]:      -nan      -nan  9.000000  9.000000 15.000000 15.000000  2.000000      -nan      -nan      -nan      -nan  1.000000      -nan      -nan  1.000000  1.000000 
dram[5]:      -nan      -nan  9.000000  9.000000 15.000000 15.000000  2.000000      -nan  1.000000      -nan      -nan      -nan  2.000000      -nan  1.000000  1.000000 
dram[6]:      -nan      -nan  9.000000  9.000000 14.000000 14.000000      -nan      -nan      -nan  1.000000  1.000000  1.000000      -nan      -nan      -nan  2.000000 
dram[7]:      -nan      -nan  9.000000  9.000000 14.000000 14.000000      -nan      -nan  1.000000      -nan      -nan      -nan      -nan      -nan      -nan      -nan 
dram[8]:      -nan      -nan  5.500000  9.000000 14.000000 14.000000      -nan      -nan      -nan      -nan  1.000000      -nan      -nan      -nan      -nan      -nan 
dram[9]:      -nan      -nan  9.000000  9.000000 14.000000 14.000000      -nan      -nan  1.000000      -nan      -nan      -nan      -nan      -nan      -nan      -nan 
dram[10]:      -nan      -nan  9.000000  9.000000 14.000000 14.000000  2.000000      -nan      -nan      -nan  2.000000      -nan      -nan      -nan      -nan  2.000000 
average row locality = 560/74 = 7.567567
number of total memory accesses made:
dram[0]:         0         0         0         0         0         0         0         0         0         0         0         0         0         0         0         0 
dram[1]:         0         0         0         0         0         0         0         0         0         0         0         0         0         0         0         0 
dram[2]:         0         0         0         0         0         0         0         0         0         0         0         0         0         0         0         0 
dram[3]:         0         0         0         0         0         0         0         0         0         0         0         0         0         0         0         0 
dram[4]:         0         0         0         0         0         0         0         0         0         0         0         0         0         0         0         0 
dram[5]:         0         0         0         0         0         0         0         0         0         0         0         0         0         0         0         0 
dram[6]:         0         0         0         0         0         0         0         0         0         0         0         0         0         0         0         0 
dram[7]:         0         0         0         0         0         0         0         0         0         0         0         0         0         0         0         0 
dram[8]:         0         0         0         0         0         0         0         0         0         0         0         0         0         0         0         0 
dram[9]:         0         0         0         0         0         0         0         0         0         0         0         0         0         0         0         0 
dram[10]:         0         0         0         0         0         0         0         0         0         0         0         0         0         0         0         0 
total accesses: 0
min_bank_accesses = 0!
min_chip_accesses = 0!
number of total read accesses:
dram[0]:         1         0         8         8        15        15         0         0         0         0         0         0         0         0         0         0 
dram[1]:         0         0         8         8        15        15         0         0         0         1         2         1         0         0         0         0 
dram[2]:         0         0         8         8        15        16         1         0         1         0         0         0         0         0         0         0 
dram[3]:         0         0         9         9        15        15         0         2         1         0         0         0         1         0         0         0 
dram[4]:         0         0         9         9        15        15         1         0         0         0         0         1         0         0         1         1 
dram[5]:         0         0         9         9        15        15         1         0         1         0         0         0         1         0         1         1 
dram[6]:         0         0         9         9        14        14         0         0         0         1         1         1         0         0         0         1 
dram[7]:         0         0         9         9        14        14         0         0         1         0         0         0         0         0         0         0 
dram[8]:         0         0        10         9        14        14         0         0         0         0         1         0         0         0         0         0 
dram[9]:         0         0         9         9        14        14         0         0         1         0         0         0         0         0         0         0 
dram[10]:         0         0         9         9        14        14         1         0         0         0         1         0         0         0         0         1 
total reads: 544
min_bank_accesses = 0!
chip skew: 53/47 = 1.13
number of total write accesses:
dram[0]:         0         0         0         0         0         0         0         0         0         0         0         0         0         0         0         0 
dram[1]:         0         0         0         0         0         0         0         0         0         1         0         1         0         0         0         0 
dram[2]:         0         0         0         0         0         1         1         0         0         0         0         0         0         0         0         0 
dram[3]:         0         0         0         0         0         0         0         2         1         0         0         0         1         0         0         0 
dram[4]:         0         0         0         0         0         0         1         0         0         0         0         0         0         0         0         0 
dram[5]:         0         0         0         0         0         0         1         0         0         0         0         0         1         0         0         0 
dram[6]:         0         0         0         0         0         0         0         0         0         0         0         0         0         0         0         1 
dram[7]:         0         0         0         0         0         0         0         0         0         0         0         0         0         0         0         0 
dram[8]:         0         0         1         0         0         0         0         0         0         0         0         0         0         0         0         0 
dram[9]:         0         0         0         0         0         0         0         0         0         0         0         0         0         0         0         0 
dram[10]:         0         0         0         0         0         0         1         0         0         0         1         0         0         0         0         1 
total reads: 16
min_bank_accesses = 0!
min_chip_accesses = 0!
average mf latency per bank:
dram[0]:       6678    none       11530     11581     19727     19923    none      none      none      none      none      none      none      none      none      none  
dram[1]:     none      none       13234     13295     19778     19978    none      none      none        4184      6405      2043    none      none      none      none  
dram[2]:     none      none       13267     13322     19794     18345      2468    none         250    none      none      none      none      none      none      none  
dram[3]:     none      none       12728     12775     19778     19879    none        2064      3327    none      none      none        6723    none      none      none  
dram[4]:     none      none       12676     12751     19793     19928      2893    none      none      none      none         352    none      none           0         0
dram[5]:     none      none       12680     12752     19810     19925      2898    none         352    none      none      none        7478    none           0         0
dram[6]:     none      none       12685     12755     20303     20461    none      none      none         352       352       250    none      none      none        7907
dram[7]:     none      none       12681     12742     19601     19754    none      none        5811    none      none      none      none      none      none      none  
dram[8]:     none      none       11364     12729     19602     19745    none      none      none      none         352    none      none      none      none      none  
dram[9]:     none      none       12671     12734     19638     19758    none      none        5631    none      none      none      none      none      none      none  
dram[10]:     none      none       12668     12721     19620     19749      1715    none      none      none        1186    none      none      none      none        9160
maximum mf latency per bank:
dram[0]:        252         0      5453      5458      5486      5540         0         0         0         0         0         0         0         0         0         0
dram[1]:          0         0      5468      5489      5490      5550         0         0         0      8369      4999      4086         0         0         0         0
dram[2]:          0         0      5482      5488      5512     12503      4937         0       250         0         0         0         0         0         0         0
dram[3]:          0         0      5465      5474      5542      5558         0      4184      6655         0         0         0     13447         0         0         0
dram[4]:          0         0      5465      5479      5522      5571      5787         0         0         0         0       352         0         0         0         0
dram[5]:          0         0      5460      5473      5527      5576      5796         0       352         0         0         0     14957         0         0         0
dram[6]:          0         0      5465      5471      5493      5549         0         0         0       352       352       250         0         0         0     15814
dram[7]:          0         0      5459      5470      5493      5532         0         0      5811         0         0         0         0         0         0         0
dram[8]:          0         0     10789      5468      5488      5543         0         0         0         0       352         0         0         0         0         0
dram[9]:          0         0      5455      5467      5503      5537         0         0      4721         0         0         0         0         0         0         0
dram[10]:          0         0      5456      5464      5487      5527      3431         0         0         0      2372         0         0         0         0     18321
Memory Partition 0: 
Cache L2_bank_000:
MSHR contents

Cache L2_bank_001:
MSHR contents

In Dram Latency Queue (total = 0): 
DRAM[0]: 16 bks, busW=4 BL=8 CL=12, tRRD=2 tCCD=6, tRCD=12 tRAS=28 tRP=12 tRC=40
n_cmd=87260 n_nop=87067 n_act=5 n_pre=0 n_req=47 n_rd=188 n_write=0 bw_util=0.004309
n_activity=440 dram_eff=0.8545
bk0: 4a 87242i bk1: 0a 87261i bk2: 32a 87186i bk3: 32a 87137i bk4: 60a 87113i bk5: 60a 86998i bk6: 0a 87258i bk7: 0a 87258i bk8: 0a 87259i bk9: 0a 87259i bk10: 0a 87260i bk11: 0a 87260i bk12: 0a 87260i bk13: 0a 87260i bk14: 0a 87260i bk15: 0a 87260i 
dram_util_bins: 0 0 0 0 0 0 0 0 0 0
dram_eff_bins: 0 0 0 0 0 0 0 0 0 0
mrqq: max=13 avg=0.0235159
Memory Partition 1: 
Cache L2_bank_002:
MSHR contents

Cache L2_bank_003:
MSHR contents

In Dram Latency Queue (total = 0): 
DRAM[1]: 16 bks, busW=4 BL=8 CL=12, tRRD=2 tCCD=6, tRCD=12 tRAS=28 tRP=12 tRC=40
n_cmd=87260 n_nop=87049 n_act=8 n_pre=1 n_req=52 n_rd=200 n_write=2 bw_util=0.00463
n_activity=572 dram_eff=0.7063
bk0: 0a 87261i bk1: 0a 87262i bk2: 32a 87186i bk3: 32a 87130i bk4: 60a 87089i bk5: 60a 86978i bk6: 0a 87260i bk7: 0a 87261i bk8: 0a 87261i bk9: 4a 87235i bk10: 8a 87208i bk11: 4a 87232i bk12: 0a 87258i bk13: 0a 87258i bk14: 0a 87259i bk15: 0a 87260i 
dram_util_bins: 0 0 0 0 0 0 0 0 0 0
dram_eff_bins: 0 0 0 0 0 0 0 0 0 0
mrqq: max=13 avg=0.0267362
Memory Partition 2: 
Cache L2_bank_004:
MSHR contents

Cache L2_bank_005:
MSHR contents

In Dram Latency Queue (total = 0): 
DRAM[2]: 16 bks, busW=4 BL=8 CL=12, tRRD=2 tCCD=6, tRCD=12 tRAS=28 tRP=12 tRC=40
n_cmd=87260 n_nop=87054 n_act=7 n_pre=1 n_req=51 n_rd=196 n_write=2 bw_util=0.004538
n_activity=532 dram_eff=0.7444
bk0: 0a 87261i bk1: 0a 87262i bk2: 32a 87186i bk3: 32a 87131i bk4: 60a 87093i bk5: 64a 86944i bk6: 4a 87233i bk7: 0a 87258i bk8: 4a 87238i bk9: 0a 87257i bk10: 0a 87258i bk11: 0a 87260i bk12: 0a 87260i bk13: 0a 87260i bk14: 0a 87260i bk15: 0a 87261i 
dram_util_bins: 0 0 0 0 0 0 0 0 0 0
dram_eff_bins: 0 0 0 0 0 0 0 0 0 0
mrqq: max=13 avg=0.0251433
Memory Partition 3: 
Cache L2_bank_006:
MSHR contents

Cache L2_bank_007:
MSHR contents

In Dram Latency Queue (total = 0): 
DRAM[3]: 16 bks, busW=4 BL=8 CL=12, tRRD=2 tCCD=6, tRCD=12 tRAS=28 tRP=12 tRC=40
n_cmd=87260 n_nop=87041 n_act=7 n_pre=0 n_req=56 n_rd=208 n_write=4 bw_util=0.004859
n_activity=541 dram_eff=0.7837
bk0: 0a 87261i bk1: 0a 87262i bk2: 36a 87178i bk3: 36a 87122i bk4: 60a 87091i bk5: 60a 86978i bk6: 0a 87259i bk7: 8a 87209i bk8: 4a 87225i bk9: 0a 87257i bk10: 0a 87259i bk11: 0a 87260i bk12: 4a 87235i bk13: 0a 87259i bk14: 0a 87260i bk15: 0a 87260i 
dram_util_bins: 0 0 0 0 0 0 0 0 0 0
dram_eff_bins: 0 0 0 0 0 0 0 0 0 0
mrqq: max=11 avg=0.0225762
Memory Partition 4: 
Cache L2_bank_008:
MSHR contents

Cache L2_bank_009:
MSHR contents

In Dram Latency Queue (total = 0): 
DRAM[4]: 16 bks, busW=4 BL=8 CL=12, tRRD=2 tCCD=6, tRCD=12 tRAS=28 tRP=12 tRC=40
n_cmd=87260 n_nop=87043 n_act=8 n_pre=0 n_req=53 n_rd=208 n_write=1 bw_util=0.00479
n_activity=576 dram_eff=0.7257
bk0: 0a 87259i bk1: 0a 87263i bk2: 36a 87179i bk3: 36a 87116i bk4: 60a 87093i bk5: 60a 86981i bk6: 4a 87233i bk7: 0a 87259i bk8: 0a 87259i bk9: 0a 87259i bk10: 0a 87260i bk11: 4a 87240i bk12: 0a 87258i bk13: 0a 87260i bk14: 4a 87240i bk15: 4a 87239i 
dram_util_bins: 0 0 0 0 0 0 0 0 0 0
dram_eff_bins: 0 0 0 0 0 0 0 0 0 0
mrqq: max=11 avg=0.0236305
Memory Partition 5: 
Cache L2_bank_010:
MSHR contents

Cache L2_bank_011:
MSHR contents

In Dram Latency Queue (total = 0): 
DRAM[5]: 16 bks, busW=4 BL=8 CL=12, tRRD=2 tCCD=6, tRCD=12 tRAS=28 tRP=12 tRC=40
n_cmd=87260 n_nop=87037 n_act=9 n_pre=0 n_req=55 n_rd=212 n_write=2 bw_util=0.004905
n_activity=616 dram_eff=0.6948
bk0: 0a 87257i bk1: 0a 87260i bk2: 36a 87179i bk3: 36a 87115i bk4: 60a 87097i bk5: 60a 86987i bk6: 4a 87234i bk7: 0a 87258i bk8: 4a 87241i bk9: 0a 87260i bk10: 0a 87261i bk11: 0a 87261i bk12: 4a 87235i bk13: 0a 87259i bk14: 4a 87239i bk15: 4a 87238i 
dram_util_bins: 0 0 0 0 0 0 0 0 0 0
dram_eff_bins: 0 0 0 0 0 0 0 0 0 0
mrqq: max=13 avg=0.0261746
Memory Partition 6: 
Cache L2_bank_012:
MSHR contents

Cache L2_bank_013:
MSHR contents

In Dram Latency Queue (total = 0): 
DRAM[6]: 16 bks, busW=4 BL=8 CL=12, tRRD=2 tCCD=6, tRCD=12 tRAS=28 tRP=12 tRC=40
n_cmd=87260 n_nop=87051 n_act=8 n_pre=0 n_req=51 n_rd=200 n_write=1 bw_util=0.004607
n_activity=560 dram_eff=0.7179
bk0: 0a 87260i bk1: 0a 87261i bk2: 36a 87177i bk3: 36a 87122i bk4: 56a 87096i bk5: 56a 86997i bk6: 0a 87259i bk7: 0a 87260i bk8: 0a 87260i bk9: 4a 87240i bk10: 4a 87240i bk11: 4a 87240i bk12: 0a 87259i bk13: 0a 87260i bk14: 0a 87260i bk15: 4a 87235i 
dram_util_bins: 0 0 0 0 0 0 0 0 0 0
dram_eff_bins: 0 0 0 0 0 0 0 0 0 0
mrqq: max=11 avg=0.0232409
Memory Partition 7: 
Cache L2_bank_014:
MSHR contents

Cache L2_bank_015:
MSHR contents

In Dram Latency Queue (total = 0): 
DRAM[7]: 16 bks, busW=4 BL=8 CL=12, tRRD=2 tCCD=6, tRCD=12 tRAS=28 tRP=12 tRC=40
n_cmd=87260 n_nop=87067 n_act=5 n_pre=0 n_req=47 n_rd=188 n_write=0 bw_util=0.004309
n_activity=440 dram_eff=0.8545
bk0: 0a 87261i bk1: 0a 87262i bk2: 36a 87178i bk3: 36a 87115i bk4: 56a 87100i bk5: 56a 87002i bk6: 0a 87259i bk7: 0a 87259i bk8: 4a 87240i bk9: 0a 87258i bk10: 0a 87259i bk11: 0a 87259i bk12: 0a 87259i bk13: 0a 87259i bk14: 0a 87260i bk15: 0a 87260i 
dram_util_bins: 0 0 0 0 0 0 0 0 0 0
dram_eff_bins: 0 0 0 0 0 0 0 0 0 0
mrqq: max=10 avg=0.0209947
Memory Partition 8: 
Cache L2_bank_016:
MSHR contents

Cache L2_bank_017:
MSHR contents

In Dram Latency Queue (total = 0): 
DRAM[8]: 16 bks, busW=4 BL=8 CL=12, tRRD=2 tCCD=6, tRCD=12 tRAS=28 tRP=12 tRC=40
n_cmd=87260 n_nop=87060 n_act=6 n_pre=1 n_req=49 n_rd=192 n_write=1 bw_util=0.004424
n_activity=492 dram_eff=0.7846
bk0: 0a 87261i bk1: 0a 87263i bk2: 40a 87141i bk3: 36a 87125i bk4: 56a 87104i bk5: 56a 86996i bk6: 0a 87258i bk7: 0a 87259i bk8: 0a 87259i bk9: 0a 87259i bk10: 4a 87241i bk11: 0a 87259i bk12: 0a 87260i bk13: 0a 87260i bk14: 0a 87260i bk15: 0a 87260i 
dram_util_bins: 0 0 0 0 0 0 0 0 0 0
dram_eff_bins: 0 0 0 0 0 0 0 0 0 0
mrqq: max=11 avg=0.0193216
Memory Partition 9: 
Cache L2_bank_018:
MSHR contents

Cache L2_bank_019:
MSHR contents

In Dram Latency Queue (total = 0): 
DRAM[9]: 16 bks, busW=4 BL=8 CL=12, tRRD=2 tCCD=6, tRCD=12 tRAS=28 tRP=12 tRC=40
n_cmd=87260 n_nop=87067 n_act=5 n_pre=0 n_req=47 n_rd=188 n_write=0 bw_util=0.004309
n_activity=440 dram_eff=0.8545
bk0: 0a 87261i bk1: 0a 87262i bk2: 36a 87178i bk3: 36a 87121i bk4: 56a 87109i bk5: 56a 87001i bk6: 0a 87259i bk7: 0a 87259i bk8: 4a 87240i bk9: 0a 87258i bk10: 0a 87259i bk11: 0a 87259i bk12: 0a 87259i bk13: 0a 87259i bk14: 0a 87260i bk15: 0a 87260i 
dram_util_bins: 0 0 0 0 0 0 0 0 0 0
dram_eff_bins: 0 0 0 0 0 0 0 0 0 0
mrqq: max=10 avg=0.0206853
Memory Partition 10: 
Cache L2_bank_020:
MSHR contents

Cache L2_bank_021:
MSHR contents
MSHR: tag=0xc02d3280, atomic=0 1 entries : 0x7fda32c40f20 :  mf: uid= 50823, sid01:w00, part=10, addr=0xc02d32a0, load , size=32, unknown  status = IN_PARTITION_DRAM (270411), 

In Dram Latency Queue (total = 0): 
DRAM[10]: 16 bks, busW=4 BL=8 CL=12, tRRD=2 tCCD=6, tRCD=12 tRAS=28 tRP=12 tRC=40
n_cmd=87260 n_nop=87055 n_act=7 n_pre=0 n_req=52 n_rd=195 n_write=3 bw_util=0.004538
n_activity=504 dram_eff=0.7857
bk0: 0a 87259i bk1: 0a 87262i bk2: 36a 87178i bk3: 36a 87126i bk4: 56a 87098i bk5: 56a 86997i bk6: 4a 87233i bk7: 0a 87259i bk8: 0a 87259i bk9: 0a 87260i bk10: 4a 87235i bk11: 0a 87259i bk12: 0a 87259i bk13: 0a 87260i bk14: 0a 87260i bk15: 3a 87235i 
dram_util_bins: 0 0 0 0 0 0 0 0 0 0
dram_eff_bins: 0 0 0 0 0 0 0 0 0 0
mrqq: max=10 avg=0.020204

========= L2 cache stats =========
L2_cache_bank[0]: Access = 120, Miss = 24, Miss_rate = 0.200, Pending_hits = 96, Reservation_fails = 0
L2_cache_bank[1]: Access = 92, Miss = 23, Miss_rate = 0.250, Pending_hits = 69, Reservation_fails = 0
L2_cache_bank[2]: Access = 118, Miss = 25, Miss_rate = 0.212, Pending_hits = 69, Reservation_fails = 0
L2_cache_bank[3]: Access = 94, Miss = 25, Miss_rate = 0.266, Pending_hits = 69, Reservation_fails = 0
L2_cache_bank[4]: Access = 94, Miss = 25, Miss_rate = 0.266, Pending_hits = 69, Reservation_fails = 0
L2_cache_bank[5]: Access = 93, Miss = 24, Miss_rate = 0.258, Pending_hits = 69, Reservation_fails = 0
L2_cache_bank[6]: Access = 99, Miss = 26, Miss_rate = 0.263, Pending_hits = 72, Reservation_fails = 0
L2_cache_bank[7]: Access = 98, Miss = 26, Miss_rate = 0.265, Pending_hits = 72, Reservation_fails = 0
L2_cache_bank[8]: Access = 125, Miss = 26, Miss_rate = 0.208, Pending_hits = 99, Reservation_fails = 0
L2_cache_bank[9]: Access = 125, Miss = 26, Miss_rate = 0.208, Pending_hits = 99, Reservation_fails = 0
L2_cache_bank[10]: Access = 100, Miss = 28, Miss_rate = 0.280, Pending_hits = 72, Reservation_fails = 0
L2_cache_bank[11]: Access = 124, Miss = 25, Miss_rate = 0.202, Pending_hits = 99, Reservation_fails = 0
L2_cache_bank[12]: Access = 93, Miss = 24, Miss_rate = 0.258, Pending_hits = 69, Reservation_fails = 0
L2_cache_bank[13]: Access = 95, Miss = 26, Miss_rate = 0.274, Pending_hits = 69, Reservation_fails = 0
L2_cache_bank[14]: Access = 93, Miss = 24, Miss_rate = 0.258, Pending_hits = 69, Reservation_fails = 0
L2_cache_bank[15]: Access = 92, Miss = 23, Miss_rate = 0.250, Pending_hits = 69, Reservation_fails = 0
L2_cache_bank[16]: Access = 94, Miss = 25, Miss_rate = 0.266, Pending_hits = 69, Reservation_fails = 0
L2_cache_bank[17]: Access = 92, Miss = 23, Miss_rate = 0.250, Pending_hits = 69, Reservation_fails = 0
L2_cache_bank[18]: Access = 100, Miss = 24, Miss_rate = 0.240, Pending_hits = 69, Reservation_fails = 0
L2_cache_bank[19]: Access = 92, Miss = 23, Miss_rate = 0.250, Pending_hits = 69, Reservation_fails = 0
L2_cache_bank[20]: Access = 94, Miss = 25, Miss_rate = 0.266, Pending_hits = 69, Reservation_fails = 0
L2_cache_bank[21]: Access = 93, Miss = 24, Miss_rate = 0.258, Pending_hits = 69, Reservation_fails = 0
L2_total_cache_accesses = 2220
L2_total_cache_misses = 544
L2_total_cache_miss_rate = 0.2450
L2_total_cache_pending_hits = 1644
L2_total_cache_reservation_fails = 0
L2_total_cache_breakdown:
	L2_cache_stats_breakdown[GLOBAL_ACC_R][HIT] = 31
	L2_cache_stats_breakdown[GLOBAL_ACC_R][HIT_RESERVED] = 1536
	L2_cache_stats_breakdown[GLOBAL_ACC_R][MISS] = 523
	L2_cache_stats_breakdown[GLOBAL_ACC_R][RESERVATION_FAIL] = 0
	L2_cache_stats_breakdown[LOCAL_ACC_R][HIT] = 0
	L2_cache_stats_breakdown[LOCAL_ACC_R][HIT_RESERVED] = 0
	L2_cache_stats_breakdown[LOCAL_ACC_R][MISS] = 0
	L2_cache_stats_breakdown[LOCAL_ACC_R][RESERVATION_FAIL] = 0
	L2_cache_stats_breakdown[CONST_ACC_R][HIT] = 0
	L2_cache_stats_breakdown[CONST_ACC_R][HIT_RESERVED] = 27
	L2_cache_stats_breakdown[CONST_ACC_R][MISS] = 1
	L2_cache_stats_breakdown[CONST_ACC_R][RESERVATION_FAIL] = 0
	L2_cache_stats_breakdown[TEXTURE_ACC_R][HIT] = 0
	L2_cache_stats_breakdown[TEXTURE_ACC_R][HIT_RESERVED] = 0
	L2_cache_stats_breakdown[TEXTURE_ACC_R][MISS] = 0
	L2_cache_stats_breakdown[TEXTURE_ACC_R][RESERVATION_FAIL] = 0
	L2_cache_stats_breakdown[GLOBAL_ACC_W][HIT] = 1
	L2_cache_stats_breakdown[GLOBAL_ACC_W][HIT_RESERVED] = 0
	L2_cache_stats_breakdown[GLOBAL_ACC_W][MISS] = 16
	L2_cache_stats_breakdown[GLOBAL_ACC_W][RESERVATION_FAIL] = 0
	L2_cache_stats_breakdown[LOCAL_ACC_W][HIT] = 0
	L2_cache_stats_breakdown[LOCAL_ACC_W][HIT_RESERVED] = 0
	L2_cache_stats_breakdown[LOCAL_ACC_W][MISS] = 0
	L2_cache_stats_breakdown[LOCAL_ACC_W][RESERVATION_FAIL] = 0
	L2_cache_stats_breakdown[L1_WRBK_ACC][HIT] = 0
	L2_cache_stats_breakdown[L1_WRBK_ACC][HIT_RESERVED] = 0
	L2_cache_stats_breakdown[L1_WRBK_ACC][MISS] = 0
	L2_cache_stats_breakdown[L1_WRBK_ACC][RESERVATION_FAIL] = 0
	L2_cache_stats_breakdown[L2_WRBK_ACC][HIT] = 0
	L2_cache_stats_breakdown[L2_WRBK_ACC][HIT_RESERVED] = 0
	L2_cache_stats_breakdown[L2_WRBK_ACC][MISS] = 0
	L2_cache_stats_breakdown[L2_WRBK_ACC][RESERVATION_FAIL] = 0
	L2_cache_stats_breakdown[INST_ACC_R][HIT] = 0
	L2_cache_stats_breakdown[INST_ACC_R][HIT_RESERVED] = 81
	L2_cache_stats_breakdown[INST_ACC_R][MISS] = 4
	L2_cache_stats_breakdown[INST_ACC_R][RESERVATION_FAIL] = 0
	L2_cache_stats_breakdown[L1_WR_ALLOC_R][HIT] = 0
	L2_cache_stats_breakdown[L1_WR_ALLOC_R][HIT_RESERVED] = 0
	L2_cache_stats_breakdown[L1_WR_ALLOC_R][MISS] = 0
	L2_cache_stats_breakdown[L1_WR_ALLOC_R][RESERVATION_FAIL] = 0
	L2_cache_stats_breakdown[L2_WR_ALLOC_R][HIT] = 0
	L2_cache_stats_breakdown[L2_WR_ALLOC_R][HIT_RESERVED] = 0
	L2_cache_stats_breakdown[L2_WR_ALLOC_R][MISS] = 0
	L2_cache_stats_breakdown[L2_WR_ALLOC_R][RESERVATION_FAIL] = 0
	L2_cache_stats_breakdown[GLOBAL_ACC_R][TOTAL_ACCESS] = 2090
	L2_cache_stats_breakdown[CONST_ACC_R][TOTAL_ACCESS] = 28
	L2_cache_stats_breakdown[GLOBAL_ACC_W][TOTAL_ACCESS] = 17
	L2_cache_stats_breakdown[INST_ACC_R][TOTAL_ACCESS] = 85
L2_cache_data_port_util = 0.000
L2_cache_fill_port_util = 0.002

icnt_total_pkts_mem_to_simt=4706
icnt_total_pkts_simt_to_mem=2237
LD_mem_lat_dist  0 0 0 0 0 0 0 0 0 0 0 0 0 0 0 0 0 0 0 0 0 0 0 0 0 0 0
ST_mem_lat_dist  0 0 0 0 0 0 0 0 0 0 0 0 0 0 0 0 0 0 0 0 0 0 0 0 0 0 0
----------------------------Interconnect-DETAILS--------------------------------
Class 0:
Packet latency average = 30.295
	minimum = 6
	maximum = 110
Network latency average = 19.9257
	minimum = 6
	maximum = 61
Slowest packet = 27
Flit latency average = 17.3372
	minimum = 6
	maximum = 61
Slowest flit = 2916
Fragmentation average = 0
	minimum = 0
	maximum = 0
Injected packet rate average = 0.000944822
	minimum = 0.000723512 (at node 0)
	maximum = 0.0013619 (at node 1)
Accepted packet rate average = 0.000944822
	minimum = 0.000723512 (at node 0)
	maximum = 0.0013619 (at node 1)
Injected flit rate average = 0.00147745
	minimum = 0.000723512 (at node 0)
	maximum = 0.00355372 (at node 37)
Accepted flit rate average= 0.00147745
	minimum = 0.000978869 (at node 29)
	maximum = 0.00268125 (at node 1)
Injected packet length average = 1.56374
Accepted packet length average = 1.56374
Total in-flight flits = 0 (0 measured)
====== Overall Traffic Statistics ======
====== Traffic class 0 ======
Packet latency average = 30.295 (1 samples)
	minimum = 6 (1 samples)
	maximum = 110 (1 samples)
Network latency average = 19.9257 (1 samples)
	minimum = 6 (1 samples)
	maximum = 61 (1 samples)
Flit latency average = 17.3372 (1 samples)
	minimum = 6 (1 samples)
	maximum = 61 (1 samples)
Fragmentation average = 0 (1 samples)
	minimum = 0 (1 samples)
	maximum = 0 (1 samples)
Injected packet rate average = 0.000944822 (1 samples)
	minimum = 0.000723512 (1 samples)
	maximum = 0.0013619 (1 samples)
Accepted packet rate average = 0.000944822 (1 samples)
	minimum = 0.000723512 (1 samples)
	maximum = 0.0013619 (1 samples)
Injected flit rate average = 0.00147745 (1 samples)
	minimum = 0.000723512 (1 samples)
	maximum = 0.00355372 (1 samples)
Accepted flit rate average = 0.00147745 (1 samples)
	minimum = 0.000978869 (1 samples)
	maximum = 0.00268125 (1 samples)
Injected packet size average = 1.56374 (1 samples)
Accepted packet size average = 1.56374 (1 samples)
Hops average = 1 (1 samples)
----------------------------END-of-Interconnect-DETAILS-------------------------


gpgpu_simulation_time = 0 days, 0 hrs, 2 min, 51 sec (171 sec)
gpgpu_simulation_rate = 7282 (inst/sec)
gpgpu_simulation_rate = 1581 (cycle/sec)

GPGPU-Sim PTX: cudaLaunch for 0x0x401649 (mode=performance simulation) on stream 0
GPGPU-Sim PTX: pushing kernel '_Z7Kernel2PbS_S_S_i' to stream 0, gridDim= (128,1,1) blockDim = (512,1,1) 
GPGPU-Sim uArch: Shader 18 bind to kernel 2 '_Z7Kernel2PbS_S_S_i'
GPGPU-Sim uArch: CTA/core = 4, limited by: threads
GPGPU-Sim uArch: Shader 19 bind to kernel 2 '_Z7Kernel2PbS_S_S_i'
GPGPU-Sim uArch: Shader 20 bind to kernel 2 '_Z7Kernel2PbS_S_S_i'
GPGPU-Sim uArch: Shader 21 bind to kernel 2 '_Z7Kernel2PbS_S_S_i'
GPGPU-Sim uArch: Shader 22 bind to kernel 2 '_Z7Kernel2PbS_S_S_i'
GPGPU-Sim uArch: Shader 23 bind to kernel 2 '_Z7Kernel2PbS_S_S_i'
GPGPU-Sim uArch: Shader 24 bind to kernel 2 '_Z7Kernel2PbS_S_S_i'
GPGPU-Sim uArch: Shader 25 bind to kernel 2 '_Z7Kernel2PbS_S_S_i'
GPGPU-Sim uArch: Shader 26 bind to kernel 2 '_Z7Kernel2PbS_S_S_i'
GPGPU-Sim uArch: Shader 27 bind to kernel 2 '_Z7Kernel2PbS_S_S_i'
GPGPU-Sim uArch: Shader 0 bind to kernel 2 '_Z7Kernel2PbS_S_S_i'
GPGPU-Sim uArch: Shader 1 bind to kernel 2 '_Z7Kernel2PbS_S_S_i'
GPGPU-Sim uArch: Shader 2 bind to kernel 2 '_Z7Kernel2PbS_S_S_i'
GPGPU-Sim uArch: Shader 3 bind to kernel 2 '_Z7Kernel2PbS_S_S_i'
GPGPU-Sim uArch: Shader 4 bind to kernel 2 '_Z7Kernel2PbS_S_S_i'
GPGPU-Sim uArch: Shader 5 bind to kernel 2 '_Z7Kernel2PbS_S_S_i'
GPGPU-Sim uArch: Shader 6 bind to kernel 2 '_Z7Kernel2PbS_S_S_i'
GPGPU-Sim uArch: Shader 7 bind to kernel 2 '_Z7Kernel2PbS_S_S_i'
GPGPU-Sim uArch: Shader 8 bind to kernel 2 '_Z7Kernel2PbS_S_S_i'
GPGPU-Sim uArch: Shader 9 bind to kernel 2 '_Z7Kernel2PbS_S_S_i'
GPGPU-Sim uArch: Shader 10 bind to kernel 2 '_Z7Kernel2PbS_S_S_i'
GPGPU-Sim uArch: Shader 11 bind to kernel 2 '_Z7Kernel2PbS_S_S_i'
GPGPU-Sim uArch: Shader 12 bind to kernel 2 '_Z7Kernel2PbS_S_S_i'
GPGPU-Sim uArch: Shader 13 bind to kernel 2 '_Z7Kernel2PbS_S_S_i'
GPGPU-Sim uArch: Shader 14 bind to kernel 2 '_Z7Kernel2PbS_S_S_i'
GPGPU-Sim uArch: Shader 15 bind to kernel 2 '_Z7Kernel2PbS_S_S_i'
GPGPU-Sim uArch: Shader 16 bind to kernel 2 '_Z7Kernel2PbS_S_S_i'
GPGPU-Sim uArch: Shader 17 bind to kernel 2 '_Z7Kernel2PbS_S_S_i'
Destroy streams for kernel 2: size 0
kernel_name = _Z7Kernel2PbS_S_S_i 
kernel_launch_uid = 2 
gpu_sim_cycle = 1989
gpu_sim_insn = 1114192
gpu_ipc =     560.1770
gpu_tot_sim_cycle = 494551
gpu_tot_sim_insn = 2359568
gpu_tot_ipc =       4.7711
gpu_tot_issued_cta = 256
max_total_param_size = 0
gpu_stall_dramfull = 178
gpu_stall_icnt2sh    = 8101
partiton_reqs_in_parallel = 43580
partiton_reqs_in_parallel_total    = 1033868
partiton_level_parallism =      21.9105
partiton_level_parallism_total  =       2.1786
partiton_reqs_in_parallel_util = 43580
partiton_reqs_in_parallel_util_total    = 1033868
gpu_sim_cycle_parition_util = 1989
gpu_tot_sim_cycle_parition_util    = 46994
partiton_level_parallism_util =      21.9105
partiton_level_parallism_util_total  =      21.9964
partiton_replys_in_parallel = 2136
partiton_replys_in_parallel_total    = 2220
L2_BW  =     101.7892 GB/Sec
L2_BW_total  =       0.8349 GB/Sec
gpu_total_sim_rate=11623

========= Core cache stats =========
L1I_cache:
	L1I_total_cache_accesses = 43152
	L1I_total_cache_misses = 5466
	L1I_total_cache_miss_rate = 0.1267
	L1I_total_cache_pending_hits = 0
	L1I_total_cache_reservation_fails = 16512
L1D_cache:
	L1D_cache_core[0]: Access = 0, Miss = 0, Miss_rate = -nan, Pending_hits = 0, Reservation_fails = 0
	L1D_cache_core[1]: Access = 0, Miss = 0, Miss_rate = -nan, Pending_hits = 0, Reservation_fails = 0
	L1D_cache_core[2]: Access = 0, Miss = 0, Miss_rate = -nan, Pending_hits = 0, Reservation_fails = 0
	L1D_cache_core[3]: Access = 0, Miss = 0, Miss_rate = -nan, Pending_hits = 0, Reservation_fails = 0
	L1D_cache_core[4]: Access = 0, Miss = 0, Miss_rate = -nan, Pending_hits = 0, Reservation_fails = 0
	L1D_cache_core[5]: Access = 0, Miss = 0, Miss_rate = -nan, Pending_hits = 0, Reservation_fails = 0
	L1D_cache_core[6]: Access = 0, Miss = 0, Miss_rate = -nan, Pending_hits = 0, Reservation_fails = 0
	L1D_cache_core[7]: Access = 0, Miss = 0, Miss_rate = -nan, Pending_hits = 0, Reservation_fails = 0
	L1D_cache_core[8]: Access = 0, Miss = 0, Miss_rate = -nan, Pending_hits = 0, Reservation_fails = 0
	L1D_cache_core[9]: Access = 0, Miss = 0, Miss_rate = -nan, Pending_hits = 0, Reservation_fails = 0
	L1D_cache_core[10]: Access = 0, Miss = 0, Miss_rate = -nan, Pending_hits = 0, Reservation_fails = 0
	L1D_cache_core[11]: Access = 0, Miss = 0, Miss_rate = -nan, Pending_hits = 0, Reservation_fails = 0
	L1D_cache_core[12]: Access = 0, Miss = 0, Miss_rate = -nan, Pending_hits = 0, Reservation_fails = 0
	L1D_cache_core[13]: Access = 0, Miss = 0, Miss_rate = -nan, Pending_hits = 0, Reservation_fails = 0
	L1D_cache_core[14]: Access = 0, Miss = 0, Miss_rate = -nan, Pending_hits = 0, Reservation_fails = 0
	L1D_cache_core[15]: Access = 0, Miss = 0, Miss_rate = -nan, Pending_hits = 0, Reservation_fails = 0
	L1D_cache_core[16]: Access = 0, Miss = 0, Miss_rate = -nan, Pending_hits = 0, Reservation_fails = 0
	L1D_cache_core[17]: Access = 0, Miss = 0, Miss_rate = -nan, Pending_hits = 0, Reservation_fails = 0
	L1D_cache_core[18]: Access = 0, Miss = 0, Miss_rate = -nan, Pending_hits = 0, Reservation_fails = 0
	L1D_cache_core[19]: Access = 0, Miss = 0, Miss_rate = -nan, Pending_hits = 0, Reservation_fails = 0
	L1D_cache_core[20]: Access = 0, Miss = 0, Miss_rate = -nan, Pending_hits = 0, Reservation_fails = 0
	L1D_cache_core[21]: Access = 0, Miss = 0, Miss_rate = -nan, Pending_hits = 0, Reservation_fails = 0
	L1D_cache_core[22]: Access = 0, Miss = 0, Miss_rate = -nan, Pending_hits = 0, Reservation_fails = 0
	L1D_cache_core[23]: Access = 0, Miss = 0, Miss_rate = -nan, Pending_hits = 0, Reservation_fails = 0
	L1D_cache_core[24]: Access = 0, Miss = 0, Miss_rate = -nan, Pending_hits = 0, Reservation_fails = 0
	L1D_cache_core[25]: Access = 0, Miss = 0, Miss_rate = -nan, Pending_hits = 0, Reservation_fails = 0
	L1D_cache_core[26]: Access = 0, Miss = 0, Miss_rate = -nan, Pending_hits = 0, Reservation_fails = 0
	L1D_cache_core[27]: Access = 0, Miss = 0, Miss_rate = -nan, Pending_hits = 0, Reservation_fails = 0
	L1D_total_cache_accesses = 0
	L1D_total_cache_misses = 0
	L1D_total_cache_pending_hits = 0
	L1D_total_cache_reservation_fails = 0
	L1D_cache_data_port_util = 0.000
	L1D_cache_fill_port_util = 0.000
L1C_cache:
	L1C_total_cache_accesses = 24576
	L1C_total_cache_misses = 1792
	L1C_total_cache_miss_rate = 0.0729
	L1C_total_cache_pending_hits = 0
	L1C_total_cache_reservation_fails = 4886
L1T_cache:
	L1T_total_cache_accesses = 0
	L1T_total_cache_misses = 0
	L1T_total_cache_pending_hits = 0
	L1T_total_cache_reservation_fails = 0

Total_core_cache_stats:
	Total_core_cache_stats_breakdown[GLOBAL_ACC_R][HIT] = 0
	Total_core_cache_stats_breakdown[GLOBAL_ACC_R][HIT_RESERVED] = 0
	Total_core_cache_stats_breakdown[GLOBAL_ACC_R][MISS] = 0
	Total_core_cache_stats_breakdown[GLOBAL_ACC_R][RESERVATION_FAIL] = 0
	Total_core_cache_stats_breakdown[LOCAL_ACC_R][HIT] = 0
	Total_core_cache_stats_breakdown[LOCAL_ACC_R][HIT_RESERVED] = 0
	Total_core_cache_stats_breakdown[LOCAL_ACC_R][MISS] = 0
	Total_core_cache_stats_breakdown[LOCAL_ACC_R][RESERVATION_FAIL] = 0
	Total_core_cache_stats_breakdown[CONST_ACC_R][HIT] = 22784
	Total_core_cache_stats_breakdown[CONST_ACC_R][HIT_RESERVED] = 0
	Total_core_cache_stats_breakdown[CONST_ACC_R][MISS] = 1792
	Total_core_cache_stats_breakdown[CONST_ACC_R][RESERVATION_FAIL] = 4886
	Total_core_cache_stats_breakdown[TEXTURE_ACC_R][HIT] = 0
	Total_core_cache_stats_breakdown[TEXTURE_ACC_R][HIT_RESERVED] = 0
	Total_core_cache_stats_breakdown[TEXTURE_ACC_R][MISS] = 0
	Total_core_cache_stats_breakdown[TEXTURE_ACC_R][RESERVATION_FAIL] = 0
	Total_core_cache_stats_breakdown[GLOBAL_ACC_W][HIT] = 0
	Total_core_cache_stats_breakdown[GLOBAL_ACC_W][HIT_RESERVED] = 0
	Total_core_cache_stats_breakdown[GLOBAL_ACC_W][MISS] = 0
	Total_core_cache_stats_breakdown[GLOBAL_ACC_W][RESERVATION_FAIL] = 0
	Total_core_cache_stats_breakdown[LOCAL_ACC_W][HIT] = 0
	Total_core_cache_stats_breakdown[LOCAL_ACC_W][HIT_RESERVED] = 0
	Total_core_cache_stats_breakdown[LOCAL_ACC_W][MISS] = 0
	Total_core_cache_stats_breakdown[LOCAL_ACC_W][RESERVATION_FAIL] = 0
	Total_core_cache_stats_breakdown[L1_WRBK_ACC][HIT] = 0
	Total_core_cache_stats_breakdown[L1_WRBK_ACC][HIT_RESERVED] = 0
	Total_core_cache_stats_breakdown[L1_WRBK_ACC][MISS] = 0
	Total_core_cache_stats_breakdown[L1_WRBK_ACC][RESERVATION_FAIL] = 0
	Total_core_cache_stats_breakdown[L2_WRBK_ACC][HIT] = 0
	Total_core_cache_stats_breakdown[L2_WRBK_ACC][HIT_RESERVED] = 0
	Total_core_cache_stats_breakdown[L2_WRBK_ACC][MISS] = 0
	Total_core_cache_stats_breakdown[L2_WRBK_ACC][RESERVATION_FAIL] = 0
	Total_core_cache_stats_breakdown[INST_ACC_R][HIT] = 37686
	Total_core_cache_stats_breakdown[INST_ACC_R][HIT_RESERVED] = 0
	Total_core_cache_stats_breakdown[INST_ACC_R][MISS] = 5466
	Total_core_cache_stats_breakdown[INST_ACC_R][RESERVATION_FAIL] = 16512
	Total_core_cache_stats_breakdown[L1_WR_ALLOC_R][HIT] = 0
	Total_core_cache_stats_breakdown[L1_WR_ALLOC_R][HIT_RESERVED] = 0
	Total_core_cache_stats_breakdown[L1_WR_ALLOC_R][MISS] = 0
	Total_core_cache_stats_breakdown[L1_WR_ALLOC_R][RESERVATION_FAIL] = 0
	Total_core_cache_stats_breakdown[L2_WR_ALLOC_R][HIT] = 0
	Total_core_cache_stats_breakdown[L2_WR_ALLOC_R][HIT_RESERVED] = 0
	Total_core_cache_stats_breakdown[L2_WR_ALLOC_R][MISS] = 0
	Total_core_cache_stats_breakdown[L2_WR_ALLOC_R][RESERVATION_FAIL] = 0
	Total_core_cache_stats_breakdown[CONST_ACC_R][TOTAL_ACCESS] = 24576
	Total_core_cache_stats_breakdown[INST_ACC_R][TOTAL_ACCESS] = 43152
Shader 0 warp_id issue ditsribution:
warp_id:
0, 1, 2, 3, 4, 5, 6, 7, 8, 9, 10, 11, 12, 13, 14, 15, 16, 17, 18, 19, 20, 21, 22, 23, 24, 25, 26, 27, 28, 29, 30, 31, 32, 33, 34, 35, 36, 37, 38, 39, 40, 41, 42, 43, 44, 45, 46, 47, 48, 49, 50, 51, 52, 53, 54, 55, 56, 57, 58, 59, 60, 61, 62, 63, 
distro:
44, 44, 43, 44, 43, 44, 43, 44, 44, 44, 44, 44, 44, 44, 44, 44, 44, 44, 44, 44, 44, 44, 44, 44, 44, 44, 44, 44, 44, 44, 44, 44, 44, 44, 44, 44, 44, 44, 44, 44, 44, 44, 44, 44, 44, 44, 44, 44, 44, 44, 44, 44, 44, 44, 44, 44, 44, 44, 44, 44, 44, 44, 44, 44, 
gpgpu_n_tot_thrd_icount = 2499680
gpgpu_n_tot_w_icount = 78115
gpgpu_n_stall_shd_mem = 5424
gpgpu_n_mem_read_local = 0
gpgpu_n_mem_write_local = 0
gpgpu_n_mem_read_global = 4138
gpgpu_n_mem_write_global = 49
gpgpu_n_mem_texture = 0
gpgpu_n_mem_const = 28
gpgpu_n_load_insn  = 131114
gpgpu_n_store_insn = 49
gpgpu_n_shmem_insn = 0
gpgpu_n_tex_insn = 0
gpgpu_n_const_mem_insn = 0
gpgpu_n_param_mem_insn = 786432
gpgpu_n_shmem_bkconflict = 0
gpgpu_n_cache_bkconflict = 0
gpgpu_n_intrawarp_mshr_merge = 0
gpgpu_n_cmem_portconflict = 4886
gpgpu_stall_shd_mem[c_mem][bk_conf] = 4886
gpgpu_stall_shd_mem[c_mem][mshr_rc] = 0
gpgpu_stall_shd_mem[c_mem][icnt_rc] = 0
gpgpu_stall_shd_mem[c_mem][data_port_stall] = 0
gpgpu_stall_shd_mem[t_mem][mshr_rc] = 0
gpgpu_stall_shd_mem[t_mem][icnt_rc] = 0
gpgpu_stall_shd_mem[t_mem][data_port_stall] = 0
gpgpu_stall_shd_mem[s_mem][bk_conf] = 0
gpgpu_stall_shd_mem[gl_mem][bk_conf] = 0
gpgpu_stall_shd_mem[gl_mem][coal_stall] = 0
gpgpu_stall_shd_mem[gl_mem][data_port_stall] = 0
gpgpu_stall_shd_mem[g_mem_ld][mshr_rc] = 0
gpgpu_stall_shd_mem[g_mem_ld][icnt_rc] = 538
gpgpu_stall_shd_mem[g_mem_ld][wb_icnt_rc] = 0
gpgpu_stall_shd_mem[g_mem_ld][wb_rsrv_fail] = 0
gpgpu_stall_shd_mem[g_mem_st][mshr_rc] = 0
gpgpu_stall_shd_mem[g_mem_st][icnt_rc] = 0
gpgpu_stall_shd_mem[g_mem_st][wb_icnt_rc] = 0
gpgpu_stall_shd_mem[g_mem_st][wb_rsrv_fail] = 0
gpgpu_stall_shd_mem[l_mem_ld][mshr_rc] = 0
gpgpu_stall_shd_mem[l_mem_ld][icnt_rc] = 0
gpgpu_stall_shd_mem[l_mem_ld][wb_icnt_rc] = 0
gpgpu_stall_shd_mem[l_mem_ld][wb_rsrv_fail] = 0
gpgpu_stall_shd_mem[l_mem_st][mshr_rc] = 0
gpgpu_stall_shd_mem[l_mem_st][icnt_rc] = 0
gpgpu_stall_shd_mem[l_mem_ld][wb_icnt_rc] = 0
gpgpu_stall_shd_mem[l_mem_ld][wb_rsrv_fail] = 0
gpu_reg_bank_conflict_stalls = 0
Warp Occupancy Distribution:
Stall:20446	W0_Idle:99482	W0_Scoreboard:346973	W1:291	W2:0	W3:0	W4:0	W5:0	W6:0	W7:0	W8:0	W9:0	W10:0	W11:0	W12:0	W13:0	W14:0	W15:0	W16:0	W17:0	W18:0	W19:0	W20:0	W21:0	W22:0	W23:0	W24:0	W25:0	W26:0	W27:0	W28:0	W29:0	W30:0	W31:0	W32:77824
traffic_breakdown_coretomem[CONST_ACC_R] = 224 {8:28,}
traffic_breakdown_coretomem[GLOBAL_ACC_R] = 33104 {8:4138,}
traffic_breakdown_coretomem[GLOBAL_ACC_W] = 1960 {40:49,}
traffic_breakdown_coretomem[INST_ACC_R] = 1128 {8:141,}
traffic_breakdown_memtocore[CONST_ACC_R] = 2016 {72:28,}
traffic_breakdown_memtocore[GLOBAL_ACC_R] = 165520 {40:4138,}
traffic_breakdown_memtocore[GLOBAL_ACC_W] = 392 {8:49,}
traffic_breakdown_memtocore[INST_ACC_R] = 19176 {136:141,}
maxmrqlatency = 111 
maxdqlatency = 0 
maxmflatency = 18321 
averagemflatency = 2447 
max_icnt2mem_latency = 18086 
max_icnt2sh_latency = 494550 
mrq_lat_table:374 	57 	103 	133 	78 	219 	109 	0 	0 	0 	0 	0 	0 	0 	0 	0 	0 	0 	0 	0 	0 	0 	0 	0 	0 	0 	0 	0 	0 	0 	0 	0 	
[...]
	L2_cache_stats_breakdown[CONST_ACC_R][TOTAL_ACCESS] = 28
	L2_cache_stats_breakdown[GLOBAL_ACC_W][TOTAL_ACCESS] = 295310
	L2_cache_stats_breakdown[INST_ACC_R][TOTAL_ACCESS] = 168
L2_cache_data_port_util = 0.176
L2_cache_fill_port_util = 0.008

icnt_total_pkts_mem_to_simt=2597859
icnt_total_pkts_simt_to_mem=1482717
LD_mem_lat_dist  0 0 0 0 0 0 0 0 0 0 0 0 0 0 0 0 0 0 0 0 0 0 0 0 0 0 0
ST_mem_lat_dist  0 0 0 0 0 0 0 0 0 0 0 0 0 0 0 0 0 0 0 0 0 0 0 0 0 0 0
----------------------------Interconnect-DETAILS--------------------------------
Class 0:
Packet latency average = 8.55615
	minimum = 6
	maximum = 30
Network latency average = 8.44067
	minimum = 6
	maximum = 26
Slowest packet = 2373327
Flit latency average = 8.18587
	minimum = 6
	maximum = 25
Slowest flit = 4078511
Fragmentation average = 0
	minimum = 0
	maximum = 0
Injected packet rate average = 0.0422704
	minimum = 0.0330237 (at node 2)
	maximum = 0.0495356 (at node 40)
Accepted packet rate average = 0.0422704
	minimum = 0.0330237 (at node 2)
	maximum = 0.0495356 (at node 40)
Injected flit rate average = 0.0634056
	minimum = 0.0330237 (at node 2)
	maximum = 0.0990712 (at node 40)
Accepted flit rate average= 0.0634056
	minimum = 0.0474716 (at node 28)
	maximum = 0.0825593 (at node 0)
Injected packet length average = 1.5
Accepted packet length average = 1.5
Total in-flight flits = 0 (0 measured)
====== Overall Traffic Statistics ======
====== Traffic class 0 ======
Packet latency average = 36.6326 (20 samples)
	minimum = 6 (20 samples)
	maximum = 345.35 (20 samples)
Network latency average = 22.0629 (20 samples)
	minimum = 6 (20 samples)
	maximum = 259.35 (20 samples)
Flit latency average = 22.6385 (20 samples)
	minimum = 6 (20 samples)
	maximum = 258.45 (20 samples)
Fragmentation average = 0.0084478 (20 samples)
	minimum = 0 (20 samples)
	maximum = 90.65 (20 samples)
Injected packet rate average = 0.046123 (20 samples)
	minimum = 0.0339339 (20 samples)
	maximum = 0.111609 (20 samples)
Accepted packet rate average = 0.046123 (20 samples)
	minimum = 0.0339339 (20 samples)
	maximum = 0.111609 (20 samples)
Injected flit rate average = 0.0736561 (20 samples)
	minimum = 0.0423377 (20 samples)
	maximum = 0.161318 (20 samples)
Accepted flit rate average = 0.0736561 (20 samples)
	minimum = 0.0539826 (20 samples)
	maximum = 0.211191 (20 samples)
Injected packet size average = 1.59695 (20 samples)
Accepted packet size average = 1.59695 (20 samples)
Hops average = 1 (20 samples)
----------------------------END-of-Interconnect-DETAILS-------------------------


gpgpu_simulation_time = 0 days, 1 hrs, 17 min, 48 sec (4668 sec)
gpgpu_simulation_rate = 6758 (inst/sec)
gpgpu_simulation_rate = 1049 (cycle/sec)
Kernel Executed 10 times
Result stored in result.txt
========================================UVM statistics==============================
========================================TLB statistics(access)==============================
Shader0: Tlb_access: 42550 Tlb_hit: 41262 Tlb_miss: 1288 Tlb_hit_rate: 0.969730
Shader1: Tlb_access: 41312 Tlb_hit: 40072 Tlb_miss: 1240 Tlb_hit_rate: 0.969985
Shader2: Tlb_access: 38880 Tlb_hit: 37645 Tlb_miss: 1235 Tlb_hit_rate: 0.968236
Shader3: Tlb_access: 42166 Tlb_hit: 40934 Tlb_miss: 1232 Tlb_hit_rate: 0.970782
Shader4: Tlb_access: 40688 Tlb_hit: 39410 Tlb_miss: 1278 Tlb_hit_rate: 0.968590
Shader5: Tlb_access: 39045 Tlb_hit: 37891 Tlb_miss: 1154 Tlb_hit_rate: 0.970444
Shader6: Tlb_access: 43236 Tlb_hit: 42004 Tlb_miss: 1232 Tlb_hit_rate: 0.971505
Shader7: Tlb_access: 41054 Tlb_hit: 39838 Tlb_miss: 1216 Tlb_hit_rate: 0.970380
Shader8: Tlb_access: 44278 Tlb_hit: 43053 Tlb_miss: 1225 Tlb_hit_rate: 0.972334
Shader9: Tlb_access: 43070 Tlb_hit: 41835 Tlb_miss: 1235 Tlb_hit_rate: 0.971326
Shader10: Tlb_access: 45332 Tlb_hit: 44018 Tlb_miss: 1314 Tlb_hit_rate: 0.971014
Shader11: Tlb_access: 42997 Tlb_hit: 41687 Tlb_miss: 1310 Tlb_hit_rate: 0.969533
Shader12: Tlb_access: 45317 Tlb_hit: 43983 Tlb_miss: 1334 Tlb_hit_rate: 0.970563
Shader13: Tlb_access: 41620 Tlb_hit: 40381 Tlb_miss: 1239 Tlb_hit_rate: 0.970231
Shader14: Tlb_access: 39451 Tlb_hit: 38221 Tlb_miss: 1230 Tlb_hit_rate: 0.968822
Shader15: Tlb_access: 42365 Tlb_hit: 41125 Tlb_miss: 1240 Tlb_hit_rate: 0.970731
Shader16: Tlb_access: 39269 Tlb_hit: 37995 Tlb_miss: 1274 Tlb_hit_rate: 0.967557
Shader17: Tlb_access: 44996 Tlb_hit: 43699 Tlb_miss: 1297 Tlb_hit_rate: 0.971175
Shader18: Tlb_access: 39642 Tlb_hit: 38356 Tlb_miss: 1286 Tlb_hit_rate: 0.967560
Shader19: Tlb_access: 41559 Tlb_hit: 40257 Tlb_miss: 1302 Tlb_hit_rate: 0.968671
Shader20: Tlb_access: 46705 Tlb_hit: 45320 Tlb_miss: 1385 Tlb_hit_rate: 0.970346
Shader21: Tlb_access: 43697 Tlb_hit: 42463 Tlb_miss: 1234 Tlb_hit_rate: 0.971760
Shader22: Tlb_access: 41754 Tlb_hit: 40573 Tlb_miss: 1181 Tlb_hit_rate: 0.971715
Shader23: Tlb_access: 43049 Tlb_hit: 41682 Tlb_miss: 1367 Tlb_hit_rate: 0.968246
Shader24: Tlb_access: 41133 Tlb_hit: 39934 Tlb_miss: 1199 Tlb_hit_rate: 0.970851
Shader25: Tlb_access: 36881 Tlb_hit: 35801 Tlb_miss: 1080 Tlb_hit_rate: 0.970717
Shader26: Tlb_access: 43803 Tlb_hit: 42492 Tlb_miss: 1311 Tlb_hit_rate: 0.970071
Shader27: Tlb_access: 42878 Tlb_hit: 41598 Tlb_miss: 1280 Tlb_hit_rate: 0.970148
Tlb_tot_access: 1178727 Tlb_tot_hit: 1143529, Tlb_tot_miss: 35198, Tlb_tot_hit_rate: 0.970139
========================================TLB statistics(validate)==============================
Shader0: Tlb_validate: 219 Tlb_invalidate: 112 Tlb_evict: 0 Tlb_page_evict: 112
Shader1: Tlb_validate: 211 Tlb_invalidate: 112 Tlb_evict: 0 Tlb_page_evict: 112
Shader2: Tlb_validate: 213 Tlb_invalidate: 112 Tlb_evict: 0 Tlb_page_evict: 112
Shader3: Tlb_validate: 214 Tlb_invalidate: 112 Tlb_evict: 0 Tlb_page_evict: 112
Shader4: Tlb_validate: 210 Tlb_invalidate: 112 Tlb_evict: 0 Tlb_page_evict: 112
Shader5: Tlb_validate: 210 Tlb_invalidate: 112 Tlb_evict: 0 Tlb_page_evict: 112
Shader6: Tlb_validate: 212 Tlb_invalidate: 112 Tlb_evict: 0 Tlb_page_evict: 112
Shader7: Tlb_validate: 215 Tlb_invalidate: 112 Tlb_evict: 0 Tlb_page_evict: 112
Shader8: Tlb_validate: 216 Tlb_invalidate: 112 Tlb_evict: 0 Tlb_page_evict: 112
Shader9: Tlb_validate: 216 Tlb_invalidate: 112 Tlb_evict: 0 Tlb_page_evict: 112
Shader10: Tlb_validate: 216 Tlb_invalidate: 112 Tlb_evict: 0 Tlb_page_evict: 112
Shader11: Tlb_validate: 216 Tlb_invalidate: 112 Tlb_evict: 0 Tlb_page_evict: 112
Shader12: Tlb_validate: 218 Tlb_invalidate: 112 Tlb_evict: 0 Tlb_page_evict: 112
Shader13: Tlb_validate: 220 Tlb_invalidate: 112 Tlb_evict: 0 Tlb_page_evict: 112
Shader14: Tlb_validate: 202 Tlb_invalidate: 112 Tlb_evict: 0 Tlb_page_evict: 112
Shader15: Tlb_validate: 201 Tlb_invalidate: 112 Tlb_evict: 0 Tlb_page_evict: 112
Shader16: Tlb_validate: 213 Tlb_invalidate: 112 Tlb_evict: 0 Tlb_page_evict: 112
Shader17: Tlb_validate: 218 Tlb_invalidate: 112 Tlb_evict: 0 Tlb_page_evict: 112
Shader18: Tlb_validate: 202 Tlb_invalidate: 112 Tlb_evict: 0 Tlb_page_evict: 112
Shader19: Tlb_validate: 214 Tlb_invalidate: 112 Tlb_evict: 0 Tlb_page_evict: 112
Shader20: Tlb_validate: 230 Tlb_invalidate: 112 Tlb_evict: 0 Tlb_page_evict: 112
Shader21: Tlb_validate: 208 Tlb_invalidate: 112 Tlb_evict: 0 Tlb_page_evict: 112
Shader22: Tlb_validate: 208 Tlb_invalidate: 112 Tlb_evict: 0 Tlb_page_evict: 112
Shader23: Tlb_validate: 208 Tlb_invalidate: 112 Tlb_evict: 0 Tlb_page_evict: 112
Shader24: Tlb_validate: 214 Tlb_invalidate: 112 Tlb_evict: 0 Tlb_page_evict: 112
Shader25: Tlb_validate: 201 Tlb_invalidate: 112 Tlb_evict: 0 Tlb_page_evict: 112
Shader26: Tlb_validate: 219 Tlb_invalidate: 112 Tlb_evict: 0 Tlb_page_evict: 112
Shader27: Tlb_validate: 210 Tlb_invalidate: 112 Tlb_evict: 0 Tlb_page_evict: 112
Tlb_tot_valiate: 5954 Tlb_invalidate: 3136, Tlb_tot_evict: 0, Tlb_tot_evict page: 3136
========================================TLB statistics(threshing)==============================
Shader0: Total 0
Shader1: Total 0
Shader2: Total 0
Shader3: Total 0
Shader4: Total 0
Shader5: Total 0
Shader6: Total 0
Shader7: Total 0
Shader8: Total 0
Shader9: Total 0
Shader10: Total 0
Shader11: Total 0
Shader12: Total 0
Shader13: Total 0
Shader14: Total 0
Shader15: Total 0
Shader16: Total 0
Shader17: Total 0
Shader18: Total 0
Shader19: Total 0
Shader20: Total 0
Shader21: Total 0
Shader22: Total 0
Shader23: Total 0
Shader24: Total 0
Shader25: Total 0
Shader26: Total 0
Shader27: Total 0
Tlb_tot_thresh: 0
========================================Page fault statistics==============================
Shader0: Page_table_access:1288 Page_hit: 1222 Page_miss: 66 Page_hit_rate: 0.948758 Page_fault: 2 Page_pending: 63
Shader1: Page_table_access:1240 Page_hit: 1154 Page_miss: 86 Page_hit_rate: 0.930645 Page_fault: 8 Page_pending: 78
Shader2: Page_table_access:1235 Page_hit: 1139 Page_miss: 96 Page_hit_rate: 0.922267 Page_fault: 0 Page_pending: 96
Shader3: Page_table_access:1232 Page_hit: 1168 Page_miss: 64 Page_hit_rate: 0.948052 Page_fault: 0 Page_pending: 64
Shader4: Page_table_access:1278 Page_hit: 1182 Page_miss: 96 Page_hit_rate: 0.924883 Page_fault: 0 Page_pending: 96
Shader5: Page_table_access:1154 Page_hit: 1074 Page_miss: 80 Page_hit_rate: 0.930676 Page_fault: 0 Page_pending: 80
Shader6: Page_table_access:1232 Page_hit: 1166 Page_miss: 66 Page_hit_rate: 0.946429 Page_fault: 1 Page_pending: 65
Shader7: Page_table_access:1216 Page_hit: 1136 Page_miss: 80 Page_hit_rate: 0.934211 Page_fault: 0 Page_pending: 80
Shader8: Page_table_access:1225 Page_hit: 1145 Page_miss: 80 Page_hit_rate: 0.934694 Page_fault: 0 Page_pending: 80
Shader9: Page_table_access:1235 Page_hit: 1155 Page_miss: 80 Page_hit_rate: 0.935223 Page_fault: 0 Page_pending: 80
Shader10: Page_table_access:1314 Page_hit: 1234 Page_miss: 80 Page_hit_rate: 0.939117 Page_fault: 0 Page_pending: 80
Shader11: Page_table_access:1310 Page_hit: 1230 Page_miss: 80 Page_hit_rate: 0.938931 Page_fault: 0 Page_pending: 80
Shader12: Page_table_access:1334 Page_hit: 1254 Page_miss: 80 Page_hit_rate: 0.940030 Page_fault: 0 Page_pending: 80
Shader13: Page_table_access:1239 Page_hit: 1159 Page_miss: 80 Page_hit_rate: 0.935432 Page_fault: 0 Page_pending: 80
Shader14: Page_table_access:1230 Page_hit: 1150 Page_miss: 80 Page_hit_rate: 0.934959 Page_fault: 0 Page_pending: 80
Shader15: Page_table_access:1240 Page_hit: 1160 Page_miss: 80 Page_hit_rate: 0.935484 Page_fault: 0 Page_pending: 80
Shader16: Page_table_access:1274 Page_hit: 1194 Page_miss: 80 Page_hit_rate: 0.937206 Page_fault: 0 Page_pending: 80
Shader17: Page_table_access:1297 Page_hit: 1215 Page_miss: 82 Page_hit_rate: 0.936777 Page_fault: 2 Page_pending: 80
Shader18: Page_table_access:1286 Page_hit: 1222 Page_miss: 64 Page_hit_rate: 0.950233 Page_fault: 0 Page_pending: 64
Shader19: Page_table_access:1302 Page_hit: 1238 Page_miss: 64 Page_hit_rate: 0.950845 Page_fault: 0 Page_pending: 64
Shader20: Page_table_access:1385 Page_hit: 1319 Page_miss: 66 Page_hit_rate: 0.952347 Page_fault: 2 Page_pending: 64
Shader21: Page_table_access:1234 Page_hit: 1170 Page_miss: 64 Page_hit_rate: 0.948136 Page_fault: 0 Page_pending: 64
Shader22: Page_table_access:1181 Page_hit: 1115 Page_miss: 66 Page_hit_rate: 0.944115 Page_fault: 0 Page_pending: 66
Shader23: Page_table_access:1367 Page_hit: 1303 Page_miss: 64 Page_hit_rate: 0.953182 Page_fault: 0 Page_pending: 64
Shader24: Page_table_access:1199 Page_hit: 1135 Page_miss: 64 Page_hit_rate: 0.946622 Page_fault: 1 Page_pending: 64
Shader25: Page_table_access:1080 Page_hit: 1014 Page_miss: 66 Page_hit_rate: 0.938889 Page_fault: 0 Page_pending: 66
Shader26: Page_table_access:1311 Page_hit: 1247 Page_miss: 64 Page_hit_rate: 0.951182 Page_fault: 0 Page_pending: 64
Shader27: Page_table_access:1280 Page_hit: 1214 Page_miss: 66 Page_hit_rate: 0.948438 Page_fault: 0 Page_pending: 66
Page_talbe_tot_access: 35198 Page_tot_hit: 33114, Page_tot_miss 2084, Page_tot_hit_rate: 0.940792 Page_tot_fault: 16 Page_tot_pending: 2068
Total_memory_access_page_fault: 16, Average_latency 503203.875000
========================================Page threshing statistics==============================
Page_validate: 752 Page_evict_diry: 0 Page_evict_not_diry: 0
Page_tot_thresh: 0
========================================Memory access statistics==============================
========================================Prefetch statistics==============================
Tot_page_hit: 0, Tot_page_miss: 0, Tot_page_fault: 0
Avg_page_latency: 0.000000, Avg_prefetch_size: -nan, Avg_prefetch_latency: 0.000000
========================================PCI-e statistics==============================
Pcie_read_utilization: 0.659820
[0-25]: 0.025935, [26-50]: 0.049057, [51-75]: 0.925007, [76-100]: 0.000000
Pcie_write_utilization: 0.000000
[0-25]: -nan, [26-50]: -nan, [51-75]: -nan, [76-100]: -nan
F:        0----T:     1267 	 St: 80000000 Sz: 1 	 Sm: 0 	 T: memcpy_h2d(0.855503)
F:   223418----T:   270412 	 	 	 Kl: 1 	 Sm: 0 	 T: kernel_launch(31.731262)
F:   224341----T:   226056 	 St: c0080000 Sz: 16384 	 Sm: 0 	 T: memcpy_h2d(1.158001)
F:   226056----T:   229488 	 St: c0084000 Sz: 49152 	 Sm: 0 	 T: memcpy_h2d(2.317353)
F:   229488----T:   230790 	 St: c0000000 Sz: 4096 	 Sm: 0 	 T: memcpy_h2d(0.879136)
F:   230790----T:   234910 	 St: c0001000 Sz: 61440 	 Sm: 0 	 T: memcpy_h2d(2.781904)
F:   234910----T:   236212 	 St: c00b0000 Sz: 4096 	 Sm: 0 	 T: memcpy_h2d(0.879136)
F:   236212----T:   240332 	 St: c00b1000 Sz: 61440 	 Sm: 0 	 T: memcpy_h2d(2.781904)
F:   240332----T:   242047 	 St: c00a0000 Sz: 16384 	 Sm: 0 	 T: memcpy_h2d(1.158001)
F:   242047----T:   245479 	 St: c00a4000 Sz: 49152 	 Sm: 0 	 T: memcpy_h2d(2.317353)
F:   245479----T:   246781 	 St: c02b0000 Sz: 4096 	 Sm: 0 	 T: memcpy_h2d(0.879136)
F:   246781----T:   250901 	 St: c02b1000 Sz: 61440 	 Sm: 0 	 T: memcpy_h2d(2.781904)
F:   250901----T:   252616 	 St: c0090000 Sz: 16384 	 Sm: 0 	 T: memcpy_h2d(1.158001)
F:   252616----T:   256048 	 St: c0094000 Sz: 49152 	 Sm: 0 	 T: memcpy_h2d(2.317353)
F:   256048----T:   260168 	 St: c02e0000 Sz: 61440 	 Sm: 0 	 T: memcpy_h2d(2.781904)
F:   260168----T:   261470 	 St: c02ef000 Sz: 4096 	 Sm: 0 	 T: memcpy_h2d(0.879136)
F:   261470----T:   266052 	 St: c02c0000 Sz: 69632 	 Sm: 0 	 T: memcpy_h2d(3.093856)
F:   266052----T:   270172 	 St: c02d1000 Sz: 61440 	 Sm: 0 	 T: memcpy_h2d(2.781904)
F:   492562----T:   494551 	 	 	 Kl: 2 	 Sm: 0 	 T: kernel_launch(1.343011)
F:   494551----T:   495818 	 St: 80000000 Sz: 1 	 Sm: 0 	 T: memcpy_d2h(0.855503)
F:   495819----T:   497086 	 St: 80000000 Sz: 1 	 Sm: 0 	 T: memcpy_h2d(0.855503)
F:   719237----T:   848569 	 	 	 Kl: 3 	 Sm: 0 	 T: kernel_launch(87.327484)
F:   719904----T:   721810 	 St: c0010000 Sz: 20480 	 Sm: 0 	 T: memcpy_h2d(1.286968)
F:   721810----T:   725016 	 St: c0015000 Sz: 45056 	 Sm: 0 	 T: memcpy_h2d(2.164753)
F:   725016----T:   727773 	 St: c0020000 Sz: 36864 	 Sm: 0 	 T: memcpy_h2d(1.861580)
F:   727773----T:   733750 	 St: c0029000 Sz: 94208 	 Sm: 0 	 T: memcpy_h2d(4.035787)
F:   733750----T:   735150 	 St: c0040000 Sz: 8192 	 Sm: 0 	 T: memcpy_h2d(0.945307)
F:   735150----T:   750276 	 St: c0042000 Sz: 253952 	 Sm: 0 	 T: memcpy_h2d(10.213369)
F:   750276----T:   754166 	 St: c00e0000 Sz: 57344 	 Sm: 0 	 T: memcpy_h2d(2.626604)
F:   754166----T:   755566 	 St: c00ee000 Sz: 8192 	 Sm: 0 	 T: memcpy_h2d(0.945307)
F:   755566----T:   759917 	 St: c00f0000 Sz: 65536 	 Sm: 0 	 T: memcpy_h2d(2.937880)
F:   759917----T:   764268 	 St: c0100000 Sz: 65536 	 Sm: 0 	 T: memcpy_h2d(2.937880)
F:   764268----T:   767248 	 St: c0120000 Sz: 40960 	 Sm: 0 	 T: memcpy_h2d(2.012154)
F:   767248----T:   780494 	 St: c012a000 Sz: 221184 	 Sm: 0 	 T: memcpy_h2d(8.943956)
F:   780494----T:   782603 	 St: c0170000 Sz: 24576 	 Sm: 0 	 T: memcpy_h2d(1.424038)
F:   782603----T:   811844 	 St: c0176000 Sz: 499712 	 Sm: 0 	 T: memcpy_h2d(19.744091)
F:   811844----T:   819925 	 St: c00c0000 Sz: 131072 	 Sm: 0 	 T: memcpy_h2d(5.456449)
F:   819925----T:   824276 	 St: c0110000 Sz: 65536 	 Sm: 0 	 T: memcpy_h2d(2.937880)
F:   824276----T:   828627 	 St: c0160000 Sz: 65536 	 Sm: 0 	 T: memcpy_h2d(2.937880)
F:   828627----T:   841873 	 St: c01f0000 Sz: 221184 	 Sm: 0 	 T: memcpy_h2d(8.943956)
F:   841873----T:   874879 	 St: c0226000 Sz: 565248 	 Sm: 0 	 T: memcpy_h2d(22.286293)
F:  1070719----T:  1072014 	 	 	 Kl: 4 	 Sm: 0 	 T: kernel_launch(0.874409)
F:  1072014----T:  1073281 	 St: 80000000 Sz: 1 	 Sm: 0 	 T: memcpy_d2h(0.855503)
F:  1073282----T:  1074549 	 St: 80000000 Sz: 1 	 Sm: 0 	 T: memcpy_h2d(0.855503)
F:  1296700----T:  1308398 	 	 	 Kl: 5 	 Sm: 0 	 T: kernel_launch(7.898717)
F:  1530548----T:  1531951 	 	 	 Kl: 6 	 Sm: 0 	 T: kernel_launch(0.947333)
F:  1531951----T:  1533218 	 St: 80000000 Sz: 1 	 Sm: 0 	 T: memcpy_d2h(0.855503)
F:  1533219----T:  1534486 	 St: 80000000 Sz: 1 	 Sm: 0 	 T: memcpy_h2d(0.855503)
F:  1756637----T:  1768236 	 	 	 Kl: 7 	 Sm: 0 	 T: kernel_launch(7.831871)
F:  1990386----T:  1993281 	 	 	 Kl: 8 	 Sm: 0 	 T: kernel_launch(1.954760)
F:  1993281----T:  1994548 	 St: 80000000 Sz: 1 	 Sm: 0 	 T: memcpy_d2h(0.855503)
F:  1994549----T:  1995816 	 St: 80000000 Sz: 1 	 Sm: 0 	 T: memcpy_h2d(0.855503)
F:  2217967----T:  2238627 	 	 	 Kl: 9 	 Sm: 0 	 T: kernel_launch(13.950034)
F:  2460777----T:  2465119 	 	 	 Kl: 10 	 Sm: 0 	 T: kernel_launch(2.931803)
F:  2465119----T:  2466386 	 St: 80000000 Sz: 1 	 Sm: 0 	 T: memcpy_d2h(0.855503)
F:  2466387----T:  2467654 	 St: 80000000 Sz: 1 	 Sm: 0 	 T: memcpy_h2d(0.855503)
F:  2689805----T:  2743214 	 	 	 Kl: 11 	 Sm: 0 	 T: kernel_launch(36.062794)
F:  2965364----T:  2969781 	 	 	 Kl: 12 	 Sm: 0 	 T: kernel_launch(2.982444)
F:  2969781----T:  2971048 	 St: 80000000 Sz: 1 	 Sm: 0 	 T: memcpy_d2h(0.855503)
F:  2971049----T:  2972316 	 St: 80000000 Sz: 1 	 Sm: 0 	 T: memcpy_h2d(0.855503)
F:  3194467----T:  3284309 	 	 	 Kl: 13 	 Sm: 0 	 T: kernel_launch(60.663067)
F:  3506459----T:  3510801 	 	 	 Kl: 14 	 Sm: 0 	 T: kernel_launch(2.931803)
F:  3510801----T:  3512068 	 St: 80000000 Sz: 1 	 Sm: 0 	 T: memcpy_d2h(0.855503)
F:  3512069----T:  3513336 	 St: 80000000 Sz: 1 	 Sm: 0 	 T: memcpy_h2d(0.855503)
F:  3735487----T:  3769321 	 	 	 Kl: 15 	 Sm: 0 	 T: kernel_launch(22.845375)
F:  3991471----T:  3993612 	 	 	 Kl: 16 	 Sm: 0 	 T: kernel_launch(1.445645)
F:  3993612----T:  3994879 	 St: 80000000 Sz: 1 	 Sm: 0 	 T: memcpy_d2h(0.855503)
F:  3994880----T:  3996147 	 St: 80000000 Sz: 1 	 Sm: 0 	 T: memcpy_h2d(0.855503)
F:  4218298----T:  4223612 	 	 	 Kl: 17 	 Sm: 0 	 T: kernel_launch(3.588116)
F:  4445762----T:  4446855 	 	 	 Kl: 18 	 Sm: 0 	 T: kernel_launch(0.738015)
F:  4446855----T:  4448122 	 St: 80000000 Sz: 1 	 Sm: 0 	 T: memcpy_d2h(0.855503)
F:  4448123----T:  4449390 	 St: 80000000 Sz: 1 	 Sm: 0 	 T: memcpy_h2d(0.855503)
F:  4671541----T:  4673766 	 	 	 Kl: 19 	 Sm: 0 	 T: kernel_launch(1.502363)
F:  4895916----T:  4896886 	 	 	 Kl: 20 	 Sm: 0 	 T: kernel_launch(0.654963)
F:  4896886----T:  4898153 	 St: 80000000 Sz: 1 	 Sm: 0 	 T: memcpy_d2h(0.855503)
F:  4898154----T:  4899456 	 St: 0 Sz: 4096 	 Sm: 0 	 T: device_sync(0.879136)
F:  4898154----T:  4902274 	 St: 0 Sz: 61440 	 Sm: 0 	 T: device_sync(2.781904)
F:  4903576----T:  4904878 	 St: 0 Sz: 4096 	 Sm: 0 	 T: device_sync(0.879136)
F:  4903576----T:  4907696 	 St: 0 Sz: 61440 	 Sm: 0 	 T: device_sync(2.781904)
F:  4908998----T:  4910300 	 St: 0 Sz: 4096 	 Sm: 0 	 T: device_sync(0.879136)
F:  4908998----T:  4916845 	 St: 0 Sz: 126976 	 Sm: 0 	 T: device_sync(5.298447)
F:  4918147----T:  4919449 	 St: 0 Sz: 4096 	 Sm: 0 	 T: device_sync(0.879136)
F:  4918147----T:  4929748 	 St: 0 Sz: 192512 	 Sm: 0 	 T: device_sync(7.833221)
Tot_prefetch_time: 0(cycle), 0.000000(us)
Tot_kernel_exec_time: 429794(cycle), 290.205261(us)
Tot_kernel_exec_time_and_fault_time: 1496114(cycle), 1010.205261(us)
Tot_memcpy_h2d_time: 213476(cycle), 144.143143(us)
Tot_memcpy_d2h_time: 12670(cycle), 8.555031(us)
Tot_memcpy_time: 226146(cycle), 152.698181(us)
Tot_devicesync_time: 32896(cycle), 22.212019(us)
Tot_writeback_time: 0(cycle), 0.000000(us)
Tot_memcpy_d2h_sync_wb_time: 45566(cycle), 30.767050(us)
GPGPU-Sim: *** exit detected ***
