

        *** GPGPU-Sim Simulator Version 3.2.2  [build gpgpu-sim_git-commit-7c62de1d26a7fea160a1181332b97276bc435f13_modified_1] ***


GPGPU-Sim PTX: simulation mode 0 (can change with PTX_SIM_MODE_FUNC environment variable:
               1=functional simulation only, 0=detailed performance simulator)
GPGPU-Sim: Configuration options:

-network_mode                           1 # Interconnection network mode
-inter_config_file   config_fermi_islip.icnt # Interconnection network config file
-gpgpu_ptx_use_cuobjdump                    1 # Use cuobjdump to extract ptx and sass from binaries
-gpgpu_experimental_lib_support                    0 # Try to extract code from cuda libraries [Broken because of unknown cudaGetExportTable]
-gpgpu_ptx_convert_to_ptxplus                    0 # Convert SASS (native ISA) to ptxplus and run ptxplus
-gpgpu_ptx_force_max_capability                   20 # Force maximum compute capability
-gpgpu_ptx_inst_debug_to_file                    0 # Dump executed instructions' debug information to file
-gpgpu_ptx_inst_debug_file       inst_debug.txt # Executed instructions' debug output file
-gpgpu_ptx_inst_debug_thread_uid                    1 # Thread UID for executed instructions' debug output
-gpgpu_simd_model                       1 # 1 = post-dominator
-gpgpu_shader_core_pipeline              2048:32 # shader core pipeline config, i.e., {<nthread>:<warpsize>}
-gpgpu_tex_cache:l1  16:128:24,L:R:m:N:L,F:128:4,128:2 # per-shader L1 texture cache  (READ-ONLY) config  {<nsets>:<bsize>:<assoc>,<rep>:<wr>:<alloc>:<wr_alloc>,<mshr>:<N>:<merge>,<mq>:<rf>}
-gpgpu_const_cache:l1 128:64:2,L:R:f:N:L,A:2:64,4 # per-shader L1 constant memory cache  (READ-ONLY) config  {<nsets>:<bsize>:<assoc>,<rep>:<wr>:<alloc>:<wr_alloc>,<mshr>:<N>:<merge>,<mq>} 
-gpgpu_cache:il1     8:128:4,L:R:f:N:L,A:2:48,4 # shader L1 instruction cache config  {<nsets>:<bsize>:<assoc>,<rep>:<wr>:<alloc>:<wr_alloc>,<mshr>:<N>:<merge>,<mq>} 
-gpgpu_cache:dl1     64:128:6,L:L:m:N:H,A:128:8,8 # per-shader L1 data cache config  {<nsets>:<bsize>:<assoc>,<rep>:<wr>:<alloc>:<wr_alloc>,<mshr>:<N>:<merge>,<mq> | none}
-gpgpu_cache:dl1PrefL1                 none # per-shader L1 data cache config  {<nsets>:<bsize>:<assoc>,<rep>:<wr>:<alloc>:<wr_alloc>,<mshr>:<N>:<merge>,<mq> | none}
-gpgpu_cache:dl1PrefShared                 none # per-shader L1 data cache config  {<nsets>:<bsize>:<assoc>,<rep>:<wr>:<alloc>:<wr_alloc>,<mshr>:<N>:<merge>,<mq> | none}
-gmem_skip_L1D                          1 # global memory access skip L1D cache (implements -Xptxas -dlcm=cg, default=no skip)
-gpgpu_perfect_mem                      0 # enable perfect memory mode (no cache miss)
-n_regfile_gating_group                    4 # group of lanes that should be read/written together)
-gpgpu_clock_gated_reg_file                    0 # enable clock gated reg file for power calculations
-gpgpu_clock_gated_lanes                    0 # enable clock gated lanes for power calculations
-gpgpu_shader_registers                65536 # Number of registers per shader core. Limits number of concurrent CTAs. (default 8192)
-gpgpu_shader_cta                      32 # Maximum number of concurrent CTAs in shader (default 8)
-gpgpu_num_cta_barriers                   16 # Maximum number of named barriers per CTA (default 16)
-gpgpu_n_clusters                      28 # number of processing clusters
-gpgpu_n_cores_per_cluster                    1 # number of simd cores per cluster
-gpgpu_n_cluster_ejection_buffer_size                    8 # number of packets in ejection buffer
-gpgpu_n_ldst_response_buffer_size                    2 # number of response packets in ld/st unit ejection buffer
-gpgpu_shmem_size                   16384 # Size of shared memory per shader core (default 16kB)
-gpgpu_shmem_size                   98304 # Size of shared memory per shader core (default 16kB)
-gpgpu_shmem_size_PrefL1                16384 # Size of shared memory per shader core (default 16kB)
-gpgpu_shmem_size_PrefShared                16384 # Size of shared memory per shader core (default 16kB)
-gpgpu_shmem_num_banks                   32 # Number of banks in the shared memory in each shader core (default 16)
-gpgpu_shmem_limited_broadcast                    0 # Limit shared memory to do one broadcast per cycle (default on)
-gpgpu_shmem_warp_parts                    1 # Number of portions a warp is divided into for shared memory bank conflict check 
-gpgpu_warpdistro_shader                   -1 # Specify which shader core to collect the warp size distribution from
-gpgpu_warp_issue_shader                    0 # Specify which shader core to collect the warp issue distribution from
-gpgpu_local_mem_map                    1 # Mapping from local memory space address to simulated GPU physical address space (default = enabled)
-gpgpu_num_reg_banks                   32 # Number of register banks (default = 8)
-gpgpu_reg_bank_use_warp_id                    0 # Use warp ID in mapping registers to banks (default = off)
-gpgpu_operand_collector_num_units_sp                   20 # number of collector units (default = 4)
-gpgpu_operand_collector_num_units_sfu                    4 # number of collector units (default = 4)
-gpgpu_operand_collector_num_units_mem                    8 # number of collector units (default = 2)
-gpgpu_operand_collector_num_units_gen                    0 # number of collector units (default = 0)
-gpgpu_operand_collector_num_in_ports_sp                    4 # number of collector unit in ports (default = 1)
-gpgpu_operand_collector_num_in_ports_sfu                    1 # number of collector unit in ports (default = 1)
-gpgpu_operand_collector_num_in_ports_mem                    1 # number of collector unit in ports (default = 1)
-gpgpu_operand_collector_num_in_ports_gen                    0 # number of collector unit in ports (default = 0)
-gpgpu_operand_collector_num_out_ports_sp                    4 # number of collector unit in ports (default = 1)
-gpgpu_operand_collector_num_out_ports_sfu                    1 # number of collector unit in ports (default = 1)
-gpgpu_operand_collector_num_out_ports_mem                    1 # number of collector unit in ports (default = 1)
-gpgpu_operand_collector_num_out_ports_gen                    0 # number of collector unit in ports (default = 0)
-gpgpu_coalesce_arch                   13 # Coalescing arch (default = 13, anything else is off for now)
-gpgpu_num_sched_per_core                    2 # Number of warp schedulers per core
-gpgpu_max_insn_issue_per_warp                    2 # Max number of instructions that can be issued per warp in one cycle by scheduler
-gpgpu_simt_core_sim_order                    1 # Select the simulation order of cores in a cluster (0=Fix, 1=Round-Robin)
-gpgpu_pipeline_widths        4,1,1,4,1,1,6 # Pipeline widths ID_OC_SP,ID_OC_SFU,ID_OC_MEM,OC_EX_SP,OC_EX_SFU,OC_EX_MEM,EX_WB
-gpgpu_num_sp_units                     4 # Number of SP units (default=1)
-gpgpu_num_sfu_units                    1 # Number of SF units (default=1)
-gpgpu_num_mem_units                    1 # Number if ldst units (default=1) WARNING: not hooked up to anything
-gpgpu_scheduler                      gto # Scheduler configuration: < lrr | gto | two_level_active > If two_level_active:<num_active_warps>:<inner_prioritization>:<outer_prioritization>For complete list of prioritization values see shader.h enum scheduler_prioritization_typeDefault: gto
-gpgpu_concurrent_kernel_sm                    0 # Support concurrent kernels on a SM (default = disabled)
-tlb_size                            4096 # Number of tlb entries per SM.
-gpgpu_dram_scheduler                    1 # 0 = fifo, 1 = FR-FCFS (defaul)
-gpgpu_dram_partition_queues              8:8:8:8 # i2$:$2d:d2$:$2i
-l2_ideal                               0 # Use a ideal L2 cache that always hit
-gpgpu_cache:dl2     64:128:16,L:B:m:W:L,A:1024:1024,4:0,32 # unified banked L2 data cache config  {<nsets>:<bsize>:<assoc>,<rep>:<wr>:<alloc>:<wr_alloc>,<mshr>:<N>:<merge>,<mq>}
-gpgpu_cache:dl2_texture_only                    0 # L2 cache used for texture only
-gpgpu_n_mem                           11 # number of memory modules (e.g. memory controllers) in gpu
-gpgpu_n_sub_partition_per_mchannel                    2 # number of memory subpartition in each memory module
-gpgpu_n_mem_per_ctrlr                    1 # number of memory chips per memory controller
-gpgpu_memlatency_stat                   14 # track and display latency statistics 0x2 enables MC, 0x4 enables queue logs
-gpgpu_frfcfs_dram_sched_queue_size                   64 # 0 = unlimited (default); # entries per chip
-gpgpu_dram_return_queue_size                  116 # 0 = unlimited (default); # entries per chip
-gpgpu_dram_buswidth                    4 # default = 4 bytes (8 bytes per cycle at DDR)
-gpgpu_dram_burst_length                    8 # Burst length of each DRAM request (default = 4 data bus cycle)
-dram_data_command_freq_ratio                    4 # Frequency ratio between DRAM data bus and command bus (default = 2 times, i.e. DDR)
-gpgpu_dram_timing_opt nbk=16:CCD=2:RRD=6:RCD=12:RAS=28:RP=12:RC=40: CL=12:WL=4:CDLR=5:WR=12:nbkgrp=1:CCDL=0:RTPL=0 # DRAM timing parameters = {nbk:tCCD:tRRD:tRCD:tRAS:tRP:tRC:CL:WL:tCDLR:tWR:nbkgrp:tCCDL:tRTPL}
-rop_latency                          120 # ROP queue latency (default 85)
-dram_latency                         100 # DRAM latency (default 30)
-gpgpu_mem_addr_mapping dramid@8;00000000.00000000.00000000.00000000.0000RRRR.RRRRRRRR.RBBBCCCC.BCCSSSSS # mapping memory address to dram model {dramid@<start bit>;<memory address map>}
-gpgpu_mem_addr_test                    0 # run sweep test to check address mapping for aliased address
-gpgpu_mem_address_mask                    1 # 0 = old addressing mask, 1 = new addressing mask, 2 = new add. mask + flipped bank sel and chip sel bits
-gpuwattch_xml_file  gpuwattch_geforcegtx1080ti.xml # GPUWattch XML file
-power_simulation_enabled                    1 # Turn on power simulator (1=On, 0=Off)
-power_per_cycle_dump                    0 # Dump detailed power output each cycle
-power_trace_enabled                    0 # produce a file for the power trace (1=On, 0=Off)
-power_trace_zlevel                     6 # Compression level of the power trace output log (0=no comp, 9=highest)
-steady_power_levels_enabled                    0 # produce a file for the steady power levels (1=On, 0=Off)
-steady_state_definition                  8:4 # allowed deviation:number of samples
-gpgpu_max_cycle                        0 # terminates gpu simulation early (0 = no limit)
-gpgpu_max_insn                         0 # terminates gpu simulation early (0 = no limit)
-gpgpu_max_cta                          0 # terminates gpu simulation early (0 = no limit)
-gpgpu_runtime_stat                   500 # display runtime statistics such as dram utilization {<freq>:<flag>}
-liveness_message_freq                    1 # Minimum number of seconds between simulation liveness messages (0 = always print)
-gpgpu_flush_l1_cache                    0 # Flush L1 cache at the end of each kernel call
-gpgpu_flush_l2_cache                    0 # Flush L2 cache at the end of each kernel call
-gpgpu_deadlock_detect                    0 # Stop the simulation at deadlock (1=on (default), 0=off)
-gpgpu_ptx_instruction_classification                    0 # if enabled will classify ptx instruction types per kernel (Max 255 kernels now)
-gpgpu_ptx_sim_mode                     0 # Select between Performance (default) or Functional simulation (1)
-gpgpu_clock_domains 1481.0:2962.0:1481.0:2750.0 # Clock Domain Frequencies in MhZ {<Core Clock>:<ICNT Clock>:<L2 Clock>:<DRAM Clock>}
-gpgpu_max_concurrent_kernel                    8 # maximum kernels that can run concurrently on GPU
-gpgpu_cflog_interval                    0 # Interval between each snapshot in control flow logger
-visualizer_enabled                     0 # Turn on visualizer output (1=On, 0=Off)
-visualizer_outputfile                 NULL # Specifies the output log file for visualizer
-visualizer_zlevel                      6 # Compression level of the visualizer output log (0=no comp, 9=highest)
-trace_enabled                          0 # Turn on traces
-trace_components                    none # comma seperated list of traces to enable. Complete list found in trace_streams.tup. Default none
-trace_sampling_core                    0 # The core which is printed using CORE_DPRINTF. Default 0
-trace_sampling_memory_partition                   -1 # The memory partition which is printed using MEMPART_DPRINTF. Default -1 (i.e. all)
-gddr_size                            1GB # Size of GDDR in MB/GB.(GLOBAL_HEAP_START, GLOBAL_HEAP_START + gddr_size) would be used for unmanged memory, (GLOBAL_HEAP_START + gddr_size, GLOBAL_HEAP_START + gddr_size*2) would be used for managed memory. 
-page_table_walk_latency                  100 # Average page table walk latency (in core cycle).
-eviction_policy                      lru # Memory eviction policy: lru or random.
-percentage_of_free_page_buffer                    0 # Percentage of free page buffer to trigger the page eviction.
-page_size                            4KB # GDDR page size, only 4KB/2MB avaliable.
-pcie_bandwith                   32.0GB/s # PCI-e bandwith per direction, in GB/s.
-sim_prof_enable                        1 # Enable gpgpu-sim profiler
-hardware_prefetch                      1 # Enable gpgpu-sim hardware prefetcher
-page_fault_latency                 66645 # Average fault latency (in core cycle).
-enable_accurate_simulation                    0 # Enable page fault functional simulation.
-enable_ptx_file_line_stats                    1 # Turn on PTX source line statistic profiling. (1 = On)
-ptx_line_stats_filename gpgpu_inst_stats.txt # Output file for PTX source line statistics.
-gpgpu_kernel_launch_latency               222150 # Kernel launch latency in cycles. Default: 0
-gpgpu_cdp_enabled                      0 # Turn on CDP
-save_embedded_ptx                      0 # saves ptx files embedded in binary as <n>.ptx
-keep                                   0 # keep intermediate files created by GPGPU-Sim when interfacing with external programs
-gpgpu_ptx_save_converted_ptxplus                    0 # Saved converted ptxplus to a file
-ptx_opcode_latency_int         4,13,4,5,145 # Opcode latencies for integers <ADD,MAX,MUL,MAD,DIV>Default 1,1,19,25,145
-ptx_opcode_latency_fp          4,13,4,5,39 # Opcode latencies for single precision floating points <ADD,MAX,MUL,MAD,DIV>Default 1,1,1,1,30
-ptx_opcode_latency_dp         8,19,8,8,330 # Opcode latencies for double precision floating points <ADD,MAX,MUL,MAD,DIV>Default 8,8,8,8,335
-ptx_opcode_initiation_int            1,2,2,2,8 # Opcode initiation intervals for integers <ADD,MAX,MUL,MAD,DIV>Default 1,1,4,4,32
-ptx_opcode_initiation_fp            1,2,1,1,4 # Opcode initiation intervals for single precision floating points <ADD,MAX,MUL,MAD,DIV>Default 1,1,1,1,5
-ptx_opcode_initiation_dp          1,2,1,1,130 # Opcode initiation intervals for double precision floating points <ADD,MAX,MUL,MAD,DIV>Default 8,8,8,8,130
-cdp_latency         7200,8000,100,12000,1600 # CDP API latency <cudaStreamCreateWithFlags, cudaGetParameterBufferV2_init_perWarp, cudaGetParameterBufferV2_perKernel, cudaLaunchDeviceV2_init_perWarp, cudaLaunchDevicV2_perKernel>Default 7200,8000,100,12000,1600
DRAM Timing Options:
nbk                                    16 # number of banks
CCD                                     2 # column to column delay
RRD                                     6 # minimal delay between activation of rows in different banks
RCD                                    12 # row to column delay
RAS                                    28 # time needed to activate row
RP                                     12 # time needed to precharge (deactivate) row
RC                                     40 # row cycle time
CDLR                                    5 # switching from write to read (changes tWTR)
WR                                     12 # last data-in to row precharge
CL                                     12 # CAS latency
WL                                      4 # Write latency
nbkgrp                                  1 # number of bank groups
CCDL                                    0 # column to column delay between accesses to different bank groups
RTPL                                    0 # read to precharge delay between accesses to different bank groups
Total number of memory sub partition = 22
addr_dec_mask[CHIP]  = 0000000000000000 	high:64 low:0
addr_dec_mask[BK]    = 0000000000007080 	high:15 low:7
addr_dec_mask[ROW]   = 000000000fff8000 	high:28 low:15
addr_dec_mask[COL]   = 0000000000000f7f 	high:12 low:0
addr_dec_mask[BURST] = 000000000000001f 	high:5 low:0
sub_partition_id_mask = 0000000000000080
GPGPU-Sim uArch: clock freqs: 1481000000.000000:2962000000.000000:1481000000.000000:2750000000.000000
GPGPU-Sim uArch: clock periods: 0.00000000067521944632:0.00000000033760972316:0.00000000067521944632:0.00000000036363636364
*** Initializing Memory Statistics ***
GPGPU-Sim uArch: interconnect node map (shaderID+MemID to icntID)
GPGPU-Sim uArch: Memory nodes ID start from index: 28
GPGPU-Sim uArch:    0   1   2   3   4   5   6
GPGPU-Sim uArch:    7   8   9  10  11  12  13
GPGPU-Sim uArch:   14  15  16  17  18  19  20
GPGPU-Sim uArch:   21  22  23  24  25  26  27
GPGPU-Sim uArch:   28  29  30  31  32  33  34
GPGPU-Sim uArch:   35  36  37  38  39  40  41
GPGPU-Sim uArch:   42  43  44  45  46  47  48
GPGPU-Sim uArch:   49
GPGPU-Sim uArch: interconnect node reverse map (icntID to shaderID+MemID)
GPGPU-Sim uArch: Memory nodes start from ID: 28
GPGPU-Sim uArch:    0   1   2   3   4   5   6
GPGPU-Sim uArch:    7   8   9  10  11  12  13
GPGPU-Sim uArch:   14  15  16  17  18  19  20
GPGPU-Sim uArch:   21  22  23  24  25  26  27
GPGPU-Sim uArch:   28  29  30  31  32  33  34
GPGPU-Sim uArch:   35  36  37  38  39  40  41
GPGPU-Sim uArch:   42  43  44  45  46  47  48
GPGPU-Sim uArch:   49
eabbae23a07bcdbb3bd174db73a630ff  /home/gpuser/Documents/gpgpu-sim_UVM_pcie4.0/benchmarks/Managed/stencil/main
GPGPU-Sim uArch: performance model initialization complete.
GPGPU-Sim PTX: __cudaRegisterFatBinary, fat_cubin_handle = 1, filename=default
self exe links to: /home/gpuser/Documents/gpgpu-sim_UVM_pcie4.0/benchmarks/Managed/stencil/main
Running md5sum using "md5sum /home/gpuser/Documents/gpgpu-sim_UVM_pcie4.0/benchmarks/Managed/stencil/main "
Parsing file _cuobjdump_complete_output_Z9EKII
######### cuobjdump parser ########
## Adding new section ELF
Adding arch: sm_20
Adding identifier: default
## Adding new section ELF
Adding arch: sm_20
Adding identifier: default
## Adding new section PTX
Adding ptx filename: _cuobjdump_1.ptx
Adding arch: sm_20
Adding identifier: default
## Adding new section ELF
Adding arch: sm_20
Adding identifier: default
## Adding new section PTX
Adding ptx filename: _cuobjdump_2.ptx
Adding arch: sm_20
Adding identifier: default
Done parsing!!!
GPGPU-Sim PTX: __cudaRegisterFatBinary, fat_cubin_handle = 2, filename=default
GPGPU-Sim PTX: __cudaRegisterFunction _Z24block2D_hybrid_coarsen_xffPfS_iii : hostFun 0x0x401496, fat_cubin_handle = 2
GPGPU-Sim PTX: allocating shared region for "sh_A0" from 0x0 to 0x0 (shared memory space)
GPGPU-Sim PTX: instruction assembly for function '_Z24block2D_hybrid_coarsen_xffPfS_iii'...   done.
GPGPU-Sim PTX: finding reconvergence points for '_Z24block2D_hybrid_coarsen_xffPfS_iii'...
GPGPU-Sim PTX: Finding dominators for '_Z24block2D_hybrid_coarsen_xffPfS_iii'...
GPGPU-Sim PTX: Finding immediate dominators for '_Z24block2D_hybrid_coarsen_xffPfS_iii'...
GPGPU-Sim PTX: Finding postdominators for '_Z24block2D_hybrid_coarsen_xffPfS_iii'...
GPGPU-Sim PTX: Finding immediate postdominators for '_Z24block2D_hybrid_coarsen_xffPfS_iii'...
GPGPU-Sim PTX: pre-decoding instructions for '_Z24block2D_hybrid_coarsen_xffPfS_iii'...
GPGPU-Sim PTX: reconvergence points for _Z24block2D_hybrid_coarsen_xffPfS_iii...
GPGPU-Sim PTX:  1 (potential) branch divergence @  PC=0x170 (_2.ptx:82) @!%p13 bra BB0_2;
GPGPU-Sim PTX:    immediate post dominator      @  PC=0x200 (_2.ptx:104) mov.f32 %f64, %f69;
GPGPU-Sim PTX:  2 (potential) branch divergence @  PC=0x178 (_2.ptx:83) bra.uni BB0_1;
GPGPU-Sim PTX:    immediate post dominator      @  PC=0x180 (_2.ptx:86) mad.lo.s32 %r33, %r3, %r6, %r1;
GPGPU-Sim PTX:  3 (potential) branch divergence @  PC=0x228 (_2.ptx:109) @!%p16 bra BB0_4;
GPGPU-Sim PTX:    immediate post dominator      @  PC=0x2b0 (_2.ptx:130) mov.f32 %f67, %f68;
GPGPU-Sim PTX:  4 (potential) branch divergence @  PC=0x230 (_2.ptx:110) bra.uni BB0_3;
GPGPU-Sim PTX:    immediate post dominator      @  PC=0x238 (_2.ptx:113) mad.lo.s32 %r58, %r3, %r6, %r2;
GPGPU-Sim PTX:  5 (potential) branch divergence @  PC=0x2d0 (_2.ptx:134) @%p17 bra BB0_33;
GPGPU-Sim PTX:    immediate post dominator      @  PC=0x868 (_2.ptx:370) ret;
GPGPU-Sim PTX:  6 (potential) branch divergence @  PC=0x300 (_2.ptx:143) @!%p13 bra BB0_8;
GPGPU-Sim PTX:    immediate post dominator      @  PC=0x348 (_2.ptx:156) @!%p5 bra BB0_19;
GPGPU-Sim PTX:  7 (potential) branch divergence @  PC=0x308 (_2.ptx:144) bra.uni BB0_7;
GPGPU-Sim PTX:    immediate post dominator      @  PC=0x310 (_2.ptx:147) add.s32 %r75, %r273, 1;
GPGPU-Sim PTX:  8 (potential) branch divergence @  PC=0x348 (_2.ptx:156) @!%p5 bra BB0_19;
GPGPU-Sim PTX:    immediate post dominator      @  PC=0x590 (_2.ptx:251) @!%p16 bra BB0_21;
GPGPU-Sim PTX:  9 (potential) branch divergence @  PC=0x350 (_2.ptx:157) bra.uni BB0_9;
GPGPU-Sim PTX:    immediate post dominator      @  PC=0x358 (_2.ptx:160) add.s32 %r89, %r13, -1;
GPGPU-Sim PTX: 10 (potential) branch divergence @  PC=0x368 (_2.ptx:162) @%p21 bra BB0_11;
GPGPU-Sim PTX:    immediate post dominator      @  PC=0x3e8 (_2.ptx:184) setp.eq.s32%p22, %r15, 0;
GPGPU-Sim PTX: 11 (potential) branch divergence @  PC=0x370 (_2.ptx:163) bra.uni BB0_10;
GPGPU-Sim PTX:    immediate post dominator      @  PC=0x3b8 (_2.ptx:176) shl.b32 %r92, %r11, 1;
GPGPU-Sim PTX: 12 (potential) branch divergence @  PC=0x3b0 (_2.ptx:173) bra.uni BB0_12;
GPGPU-Sim PTX:    immediate post dominator      @  PC=0x3e8 (_2.ptx:184) setp.eq.s32%p22, %r15, 0;
GPGPU-Sim PTX: 13 (potential) branch divergence @  PC=0x3f0 (_2.ptx:185) @%p22 bra BB0_14;
GPGPU-Sim PTX:    immediate post dominator      @  PC=0x470 (_2.ptx:207) setp.eq.s32%p23, %r12, 0;
GPGPU-Sim PTX: 14 (potential) branch divergence @  PC=0x3f8 (_2.ptx:186) bra.uni BB0_13;
GPGPU-Sim PTX:    immediate post dominator      @  PC=0x440 (_2.ptx:199) shl.b32 %r111, %r11, 1;
GPGPU-Sim PTX: 15 (potential) branch divergence @  PC=0x438 (_2.ptx:196) bra.uni BB0_15;
GPGPU-Sim PTX:    immediate post dominator      @  PC=0x470 (_2.ptx:207) setp.eq.s32%p23, %r12, 0;
GPGPU-Sim PTX: 16 (potential) branch divergence @  PC=0x478 (_2.ptx:208) @%p23 bra BB0_17;
GPGPU-Sim PTX:    immediate post dominator      @  PC=0x4f0 (_2.ptx:229) mad.lo.s32 %r149, %r273, %r7, %r3;
GPGPU-Sim PTX: 17 (potential) branch divergence @  PC=0x480 (_2.ptx:209) bra.uni BB0_16;
GPGPU-Sim PTX:    immediate post dominator      @  PC=0x4c8 (_2.ptx:222) shl.b32 %r129, %r11, 1;
GPGPU-Sim PTX: 18 (potential) branch divergence @  PC=0x4c0 (_2.ptx:219) bra.uni BB0_18;
GPGPU-Sim PTX:    immediate post dominator      @  PC=0x4f0 (_2.ptx:229) mad.lo.s32 %r149, %r273, %r7, %r3;
GPGPU-Sim PTX: 19 (potential) branch divergence @  PC=0x590 (_2.ptx:251) @!%p16 bra BB0_21;
GPGPU-Sim PTX:    immediate post dominator      @  PC=0x5d8 (_2.ptx:264) @!%p4 bra BB0_32;
GPGPU-Sim PTX: 20 (potential) branch divergence @  PC=0x598 (_2.ptx:252) bra.uni BB0_20;
GPGPU-Sim PTX:    immediate post dominator      @  PC=0x5a0 (_2.ptx:255) add.s32 %r168, %r273, 1;
GPGPU-Sim PTX: 21 (potential) branch divergence @  PC=0x5d8 (_2.ptx:264) @!%p4 bra BB0_32;
GPGPU-Sim PTX:    immediate post dominator      @  PC=0x820 (_2.ptx:359) bar.sync 0;
GPGPU-Sim PTX: 22 (potential) branch divergence @  PC=0x5e0 (_2.ptx:265) bra.uni BB0_22;
GPGPU-Sim PTX:    immediate post dominator      @  PC=0x5e8 (_2.ptx:268) add.s32 %r183, %r13, -1;
GPGPU-Sim PTX: 23 (potential) branch divergence @  PC=0x5f8 (_2.ptx:270) @%p27 bra BB0_24;
GPGPU-Sim PTX:    immediate post dominator      @  PC=0x678 (_2.ptx:292) setp.eq.s32%p28, %r15, 0;
GPGPU-Sim PTX: 24 (potential) branch divergence @  PC=0x600 (_2.ptx:271) bra.uni BB0_23;
GPGPU-Sim PTX:    immediate post dominator      @  PC=0x648 (_2.ptx:284) shl.b32 %r186, %r11, 1;
GPGPU-Sim PTX: 25 (potential) branch divergence @  PC=0x640 (_2.ptx:281) bra.uni BB0_25;
GPGPU-Sim PTX:    immediate post dominator      @  PC=0x678 (_2.ptx:292) setp.eq.s32%p28, %r15, 0;
GPGPU-Sim PTX: 26 (potential) branch divergence @  PC=0x680 (_2.ptx:293) @%p28 bra BB0_27;
GPGPU-Sim PTX:    immediate post dominator      @  PC=0x700 (_2.ptx:315) shl.b32 %r228, %r11, 1;
GPGPU-Sim PTX: 27 (potential) branch divergence @  PC=0x688 (_2.ptx:294) bra.uni BB0_26;
GPGPU-Sim PTX:    immediate post dominator      @  PC=0x6d0 (_2.ptx:307) shl.b32 %r207, %r11, 1;
GPGPU-Sim PTX: 28 (potential) branch divergence @  PC=0x6c8 (_2.ptx:304) bra.uni BB0_28;
GPGPU-Sim PTX:    immediate post dominator      @  PC=0x700 (_2.ptx:315) shl.b32 %r228, %r11, 1;
GPGPU-Sim PTX: 29 (potential) branch divergence @  PC=0x718 (_2.ptx:318) @%p29 bra BB0_30;
GPGPU-Sim PTX:    immediate post dominator      @  PC=0x788 (_2.ptx:338) mad.lo.s32 %r253, %r273, %r7, %r3;
GPGPU-Sim PTX: 30 (potential) branch divergence @  PC=0x720 (_2.ptx:319) bra.uni BB0_29;
GPGPU-Sim PTX:    immediate post dominator      @  PC=0x768 (_2.ptx:332) mad.lo.s32 %r235, %r228, %r15, %r19;
GPGPU-Sim PTX: 31 (potential) branch divergence @  PC=0x760 (_2.ptx:329) bra.uni BB0_31;
GPGPU-Sim PTX:    immediate post dominator      @  PC=0x788 (_2.ptx:338) mad.lo.s32 %r253, %r273, %r7, %r3;
GPGPU-Sim PTX: 32 (potential) branch divergence @  PC=0x860 (_2.ptx:367) @%p30 bra BB0_6;
GPGPU-Sim PTX:    immediate post dominator      @  PC=0x868 (_2.ptx:370) ret;
GPGPU-Sim PTX: ... end of reconvergence points for _Z24block2D_hybrid_coarsen_xffPfS_iii
GPGPU-Sim PTX: ... done pre-decoding instructions for '_Z24block2D_hybrid_coarsen_xffPfS_iii'.
GPGPU-Sim PTX: finished parsing EMBEDDED .ptx file _2.ptx
Adding _cuobjdump_1.ptx with cubin handle 2
GPGPU-Sim PTX: extracting embedded .ptx to temporary file "_ptx_wMoAQY"
Running: cat _ptx_wMoAQY | sed 's/.version 1.5/.version 1.4/' | sed 's/, texmode_independent//' | sed 's/\(\.extern \.const\[1\] .b8 \w\+\)\[\]/\1\[1\]/' | sed 's/const\[.\]/const\[0\]/g' > _ptx2_vKHsYe
GPGPU-Sim PTX: generating ptxinfo using "$CUDA_INSTALL_PATH/bin/ptxas --gpu-name=sm_20 -v _ptx2_vKHsYe --output-file  /dev/null 2> _ptx_wMoAQYinfo"
GPGPU-Sim PTX: Kernel '_Z24block2D_hybrid_coarsen_xffPfS_iii' : regs=20, lmem=0, smem=0, cmem=68
GPGPU-Sim PTX: removing ptxinfo using "rm -f _ptx_wMoAQY _ptx2_vKHsYe _ptx_wMoAQYinfo"
GPGPU-Sim PTX: loading globals with explicit initializers... 
GPGPU-Sim PTX: finished loading globals (0 bytes total).
GPGPU-Sim PTX: loading constants with explicit initializers...  done.
CUDA accelerated 7 points stencil codes****
Original version by Li-Wen Chang <lchang20@illinois.edu> and I-Jui Sung<sung10@illinois.edu>
This version maintained by Chris Rodrigues  ***********

GPGPU-Sim PTX: cudaLaunch for 0x0x401496 (mode=performance simulation) on stream 0
GPGPU-Sim PTX: pushing kernel '_Z24block2D_hybrid_coarsen_xffPfS_iii' to stream 0, gridDim= (2,32,1) blockDim = (32,4,1) 
GPGPU-Sim uArch: Shader 1 bind to kernel 1 '_Z24block2D_hybrid_coarsen_xffPfS_iii'
GPGPU-Sim uArch: CTA/core = 16, limited by: threads
GPGPU-Sim uArch: Shader 2 bind to kernel 1 '_Z24block2D_hybrid_coarsen_xffPfS_iii'
GPGPU-Sim uArch: Shader 3 bind to kernel 1 '_Z24block2D_hybrid_coarsen_xffPfS_iii'
GPGPU-Sim uArch: Shader 4 bind to kernel 1 '_Z24block2D_hybrid_coarsen_xffPfS_iii'
GPGPU-Sim uArch: Shader 5 bind to kernel 1 '_Z24block2D_hybrid_coarsen_xffPfS_iii'
GPGPU-Sim uArch: Shader 6 bind to kernel 1 '_Z24block2D_hybrid_coarsen_xffPfS_iii'
GPGPU-Sim uArch: Shader 7 bind to kernel 1 '_Z24block2D_hybrid_coarsen_xffPfS_iii'
GPGPU-Sim uArch: Shader 8 bind to kernel 1 '_Z24block2D_hybrid_coarsen_xffPfS_iii'
GPGPU-Sim uArch: Shader 9 bind to kernel 1 '_Z24block2D_hybrid_coarsen_xffPfS_iii'
GPGPU-Sim uArch: Shader 10 bind to kernel 1 '_Z24block2D_hybrid_coarsen_xffPfS_iii'
GPGPU-Sim uArch: Shader 11 bind to kernel 1 '_Z24block2D_hybrid_coarsen_xffPfS_iii'
GPGPU-Sim uArch: Shader 12 bind to kernel 1 '_Z24block2D_hybrid_coarsen_xffPfS_iii'
GPGPU-Sim uArch: Shader 13 bind to kernel 1 '_Z24block2D_hybrid_coarsen_xffPfS_iii'
GPGPU-Sim uArch: Shader 14 bind to kernel 1 '_Z24block2D_hybrid_coarsen_xffPfS_iii'
GPGPU-Sim uArch: Shader 15 bind to kernel 1 '_Z24block2D_hybrid_coarsen_xffPfS_iii'
GPGPU-Sim uArch: Shader 16 bind to kernel 1 '_Z24block2D_hybrid_coarsen_xffPfS_iii'
GPGPU-Sim uArch: Shader 17 bind to kernel 1 '_Z24block2D_hybrid_coarsen_xffPfS_iii'
GPGPU-Sim uArch: Shader 18 bind to kernel 1 '_Z24block2D_hybrid_coarsen_xffPfS_iii'
GPGPU-Sim uArch: Shader 19 bind to kernel 1 '_Z24block2D_hybrid_coarsen_xffPfS_iii'
GPGPU-Sim uArch: Shader 20 bind to kernel 1 '_Z24block2D_hybrid_coarsen_xffPfS_iii'
GPGPU-Sim uArch: Shader 21 bind to kernel 1 '_Z24block2D_hybrid_coarsen_xffPfS_iii'
GPGPU-Sim uArch: Shader 22 bind to kernel 1 '_Z24block2D_hybrid_coarsen_xffPfS_iii'
GPGPU-Sim uArch: Shader 23 bind to kernel 1 '_Z24block2D_hybrid_coarsen_xffPfS_iii'
GPGPU-Sim uArch: Shader 24 bind to kernel 1 '_Z24block2D_hybrid_coarsen_xffPfS_iii'
GPGPU-Sim uArch: Shader 25 bind to kernel 1 '_Z24block2D_hybrid_coarsen_xffPfS_iii'
GPGPU-Sim uArch: Shader 26 bind to kernel 1 '_Z24block2D_hybrid_coarsen_xffPfS_iii'
GPGPU-Sim uArch: Shader 27 bind to kernel 1 '_Z24block2D_hybrid_coarsen_xffPfS_iii'
GPGPU-Sim uArch: Shader 0 bind to kernel 1 '_Z24block2D_hybrid_coarsen_xffPfS_iii'
Destroy streams for kernel 1: size 0
kernel_name = _Z24block2D_hybrid_coarsen_xffPfS_iii 
kernel_launch_uid = 1 
gpu_sim_cycle = 271656
gpu_sim_insn = 28848876
gpu_ipc =     106.1964
gpu_tot_sim_cycle = 493806
gpu_tot_sim_insn = 28848876
gpu_tot_ipc =      58.4215
gpu_tot_issued_cta = 64
max_total_param_size = 0
gpu_stall_dramfull = 83580
gpu_stall_icnt2sh    = 2419
partiton_reqs_in_parallel = 5892852
partiton_reqs_in_parallel_total    = 0
partiton_level_parallism =      21.6923
partiton_level_parallism_total  =      11.9335
partiton_reqs_in_parallel_util = 5892852
partiton_reqs_in_parallel_util_total    = 0
gpu_sim_cycle_parition_util = 270522
gpu_tot_sim_cycle_parition_util    = 0
partiton_level_parallism_util =      21.7833
partiton_level_parallism_util_total  =      21.7833
partiton_replys_in_parallel = 47008
partiton_replys_in_parallel_total    = 0
L2_BW  =      16.4016 GB/Sec
L2_BW_total  =       9.0230 GB/Sec
gpu_total_sim_rate=74352

========= Core cache stats =========
L1I_cache:
	L1I_total_cache_accesses = 579228
	L1I_total_cache_misses = 3182
	L1I_total_cache_miss_rate = 0.0055
	L1I_total_cache_pending_hits = 0
	L1I_total_cache_reservation_fails = 0
L1D_cache:
	L1D_cache_core[0]: Access = 0, Miss = 0, Miss_rate = -nan, Pending_hits = 0, Reservation_fails = 0
	L1D_cache_core[1]: Access = 0, Miss = 0, Miss_rate = -nan, Pending_hits = 0, Reservation_fails = 0
	L1D_cache_core[2]: Access = 0, Miss = 0, Miss_rate = -nan, Pending_hits = 0, Reservation_fails = 0
	L1D_cache_core[3]: Access = 0, Miss = 0, Miss_rate = -nan, Pending_hits = 0, Reservation_fails = 0
	L1D_cache_core[4]: Access = 0, Miss = 0, Miss_rate = -nan, Pending_hits = 0, Reservation_fails = 0
	L1D_cache_core[5]: Access = 0, Miss = 0, Miss_rate = -nan, Pending_hits = 0, Reservation_fails = 0
	L1D_cache_core[6]: Access = 0, Miss = 0, Miss_rate = -nan, Pending_hits = 0, Reservation_fails = 0
	L1D_cache_core[7]: Access = 0, Miss = 0, Miss_rate = -nan, Pending_hits = 0, Reservation_fails = 0
	L1D_cache_core[8]: Access = 0, Miss = 0, Miss_rate = -nan, Pending_hits = 0, Reservation_fails = 0
	L1D_cache_core[9]: Access = 0, Miss = 0, Miss_rate = -nan, Pending_hits = 0, Reservation_fails = 0
	L1D_cache_core[10]: Access = 0, Miss = 0, Miss_rate = -nan, Pending_hits = 0, Reservation_fails = 0
	L1D_cache_core[11]: Access = 0, Miss = 0, Miss_rate = -nan, Pending_hits = 0, Reservation_fails = 0
	L1D_cache_core[12]: Access = 0, Miss = 0, Miss_rate = -nan, Pending_hits = 0, Reservation_fails = 0
	L1D_cache_core[13]: Access = 0, Miss = 0, Miss_rate = -nan, Pending_hits = 0, Reservation_fails = 0
	L1D_cache_core[14]: Access = 0, Miss = 0, Miss_rate = -nan, Pending_hits = 0, Reservation_fails = 0
	L1D_cache_core[15]: Access = 0, Miss = 0, Miss_rate = -nan, Pending_hits = 0, Reservation_fails = 0
	L1D_cache_core[16]: Access = 0, Miss = 0, Miss_rate = -nan, Pending_hits = 0, Reservation_fails = 0
	L1D_cache_core[17]: Access = 0, Miss = 0, Miss_rate = -nan, Pending_hits = 0, Reservation_fails = 0
	L1D_cache_core[18]: Access = 0, Miss = 0, Miss_rate = -nan, Pending_hits = 0, Reservation_fails = 0
	L1D_cache_core[19]: Access = 0, Miss = 0, Miss_rate = -nan, Pending_hits = 0, Reservation_fails = 0
	L1D_cache_core[20]: Access = 0, Miss = 0, Miss_rate = -nan, Pending_hits = 0, Reservation_fails = 0
	L1D_cache_core[21]: Access = 0, Miss = 0, Miss_rate = -nan, Pending_hits = 0, Reservation_fails = 0
	L1D_cache_core[22]: Access = 0, Miss = 0, Miss_rate = -nan, Pending_hits = 0, Reservation_fails = 0
	L1D_cache_core[23]: Access = 0, Miss = 0, Miss_rate = -nan, Pending_hits = 0, Reservation_fails = 0
	L1D_cache_core[24]: Access = 0, Miss = 0, Miss_rate = -nan, Pending_hits = 0, Reservation_fails = 0
	L1D_cache_core[25]: Access = 0, Miss = 0, Miss_rate = -nan, Pending_hits = 0, Reservation_fails = 0
	L1D_cache_core[26]: Access = 0, Miss = 0, Miss_rate = -nan, Pending_hits = 0, Reservation_fails = 0
	L1D_cache_core[27]: Access = 0, Miss = 0, Miss_rate = -nan, Pending_hits = 0, Reservation_fails = 0
	L1D_total_cache_accesses = 0
	L1D_total_cache_misses = 0
	L1D_total_cache_pending_hits = 0
	L1D_total_cache_reservation_fails = 0
	L1D_cache_data_port_util = 0.000
	L1D_cache_fill_port_util = 0.000
L1C_cache:
	L1C_total_cache_accesses = 1792
	L1C_total_cache_misses = 1632
	L1C_total_cache_miss_rate = 0.9107
	L1C_total_cache_pending_hits = 0
	L1C_total_cache_reservation_fails = 1444
L1T_cache:
	L1T_total_cache_accesses = 0
	L1T_total_cache_misses = 0
	L1T_total_cache_pending_hits = 0
	L1T_total_cache_reservation_fails = 0

Total_core_cache_stats:
	Total_core_cache_stats_breakdown[GLOBAL_ACC_R][HIT] = 0
	Total_core_cache_stats_breakdown[GLOBAL_ACC_R][HIT_RESERVED] = 0
	Total_core_cache_stats_breakdown[GLOBAL_ACC_R][MISS] = 0
	Total_core_cache_stats_breakdown[GLOBAL_ACC_R][RESERVATION_FAIL] = 0
	Total_core_cache_stats_breakdown[LOCAL_ACC_R][HIT] = 0
	Total_core_cache_stats_breakdown[LOCAL_ACC_R][HIT_RESERVED] = 0
	Total_core_cache_stats_breakdown[LOCAL_ACC_R][MISS] = 0
	Total_core_cache_stats_breakdown[LOCAL_ACC_R][RESERVATION_FAIL] = 0
	Total_core_cache_stats_breakdown[CONST_ACC_R][HIT] = 160
	Total_core_cache_stats_breakdown[CONST_ACC_R][HIT_RESERVED] = 0
	Total_core_cache_stats_breakdown[CONST_ACC_R][MISS] = 1632
	Total_core_cache_stats_breakdown[CONST_ACC_R][RESERVATION_FAIL] = 1444
	Total_core_cache_stats_breakdown[TEXTURE_ACC_R][HIT] = 0
	Total_core_cache_stats_breakdown[TEXTURE_ACC_R][HIT_RESERVED] = 0
	Total_core_cache_stats_breakdown[TEXTURE_ACC_R][MISS] = 0
	Total_core_cache_stats_breakdown[TEXTURE_ACC_R][RESERVATION_FAIL] = 0
	Total_core_cache_stats_breakdown[GLOBAL_ACC_W][HIT] = 0
	Total_core_cache_stats_breakdown[GLOBAL_ACC_W][HIT_RESERVED] = 0
	Total_core_cache_stats_breakdown[GLOBAL_ACC_W][MISS] = 0
	Total_core_cache_stats_breakdown[GLOBAL_ACC_W][RESERVATION_FAIL] = 0
	Total_core_cache_stats_breakdown[LOCAL_ACC_W][HIT] = 0
	Total_core_cache_stats_breakdown[LOCAL_ACC_W][HIT_RESERVED] = 0
	Total_core_cache_stats_breakdown[LOCAL_ACC_W][MISS] = 0
	Total_core_cache_stats_breakdown[LOCAL_ACC_W][RESERVATION_FAIL] = 0
	Total_core_cache_stats_breakdown[L1_WRBK_ACC][HIT] = 0
	Total_core_cache_stats_breakdown[L1_WRBK_ACC][HIT_RESERVED] = 0
	Total_core_cache_stats_breakdown[L1_WRBK_ACC][MISS] = 0
	Total_core_cache_stats_breakdown[L1_WRBK_ACC][RESERVATION_FAIL] = 0
	Total_core_cache_stats_breakdown[L2_WRBK_ACC][HIT] = 0
	Total_core_cache_stats_breakdown[L2_WRBK_ACC][HIT_RESERVED] = 0
	Total_core_cache_stats_breakdown[L2_WRBK_ACC][MISS] = 0
	Total_core_cache_stats_breakdown[L2_WRBK_ACC][RESERVATION_FAIL] = 0
	Total_core_cache_stats_breakdown[INST_ACC_R][HIT] = 576046
	Total_core_cache_stats_breakdown[INST_ACC_R][HIT_RESERVED] = 0
	Total_core_cache_stats_breakdown[INST_ACC_R][MISS] = 3182
	Total_core_cache_stats_breakdown[INST_ACC_R][RESERVATION_FAIL] = 0
	Total_core_cache_stats_breakdown[L1_WR_ALLOC_R][HIT] = 0
	Total_core_cache_stats_breakdown[L1_WR_ALLOC_R][HIT_RESERVED] = 0
	Total_core_cache_stats_breakdown[L1_WR_ALLOC_R][MISS] = 0
	Total_core_cache_stats_breakdown[L1_WR_ALLOC_R][RESERVATION_FAIL] = 0
	Total_core_cache_stats_breakdown[L2_WR_ALLOC_R][HIT] = 0
	Total_core_cache_stats_breakdown[L2_WR_ALLOC_R][HIT_RESERVED] = 0
	Total_core_cache_stats_breakdown[L2_WR_ALLOC_R][MISS] = 0
	Total_core_cache_stats_breakdown[L2_WR_ALLOC_R][RESERVATION_FAIL] = 0
	Total_core_cache_stats_breakdown[CONST_ACC_R][TOTAL_ACCESS] = 1792
	Total_core_cache_stats_breakdown[INST_ACC_R][TOTAL_ACCESS] = 579228
Shader 0 warp_id issue ditsribution:
warp_id:
0, 1, 2, 3, 4, 5, 6, 7, 
distro:
4828, 4640, 4648, 4821, 4828, 4646, 4647, 4813, 
gpgpu_n_tot_thrd_icount = 33319424
gpgpu_n_tot_w_icount = 1041232
gpgpu_n_stall_shd_mem = 167339
gpgpu_n_mem_read_local = 0
gpgpu_n_mem_write_local = 0
gpgpu_n_mem_read_global = 31384
gpgpu_n_mem_write_global = 15120
gpgpu_n_mem_texture = 0
gpgpu_n_mem_const = 28
gpgpu_n_load_insn  = 766208
gpgpu_n_store_insn = 476280
gpgpu_n_shmem_insn = 3155288
gpgpu_n_tex_insn = 0
gpgpu_n_const_mem_insn = 0
gpgpu_n_param_mem_insn = 57344
gpgpu_n_shmem_bkconflict = 0
gpgpu_n_cache_bkconflict = 0
gpgpu_n_intrawarp_mshr_merge = 0
gpgpu_n_cmem_portconflict = 1444
gpgpu_stall_shd_mem[c_mem][bk_conf] = 1444
gpgpu_stall_shd_mem[c_mem][mshr_rc] = 0
gpgpu_stall_shd_mem[c_mem][icnt_rc] = 0
gpgpu_stall_shd_mem[c_mem][data_port_stall] = 0
gpgpu_stall_shd_mem[t_mem][mshr_rc] = 0
gpgpu_stall_shd_mem[t_mem][icnt_rc] = 0
gpgpu_stall_shd_mem[t_mem][data_port_stall] = 0
gpgpu_stall_shd_mem[s_mem][bk_conf] = 0
gpgpu_stall_shd_mem[gl_mem][bk_conf] = 0
gpgpu_stall_shd_mem[gl_mem][coal_stall] = 2
gpgpu_stall_shd_mem[gl_mem][data_port_stall] = 0
gpgpu_stall_shd_mem[g_mem_ld][mshr_rc] = 0
gpgpu_stall_shd_mem[g_mem_ld][icnt_rc] = 165893
gpgpu_stall_shd_mem[g_mem_ld][wb_icnt_rc] = 0
gpgpu_stall_shd_mem[g_mem_ld][wb_rsrv_fail] = 0
gpgpu_stall_shd_mem[g_mem_st][mshr_rc] = 0
gpgpu_stall_shd_mem[g_mem_st][icnt_rc] = 0
gpgpu_stall_shd_mem[g_mem_st][wb_icnt_rc] = 0
gpgpu_stall_shd_mem[g_mem_st][wb_rsrv_fail] = 0
gpgpu_stall_shd_mem[l_mem_ld][mshr_rc] = 0
gpgpu_stall_shd_mem[l_mem_ld][icnt_rc] = 0
gpgpu_stall_shd_mem[l_mem_ld][wb_icnt_rc] = 0
gpgpu_stall_shd_mem[l_mem_ld][wb_rsrv_fail] = 0
gpgpu_stall_shd_mem[l_mem_st][mshr_rc] = 0
gpgpu_stall_shd_mem[l_mem_st][icnt_rc] = 0
gpgpu_stall_shd_mem[l_mem_ld][wb_icnt_rc] = 0
gpgpu_stall_shd_mem[l_mem_ld][wb_rsrv_fail] = 0
gpu_reg_bank_conflict_stalls = 0
Warp Occupancy Distribution:
Stall:32005	W0_Idle:2923877	W0_Scoreboard:11349963	W1:60480	W2:0	W3:0	W4:0	W5:0	W6:0	W7:0	W8:0	W9:0	W10:0	W11:0	W12:0	W13:0	W14:0	W15:0	W16:0	W17:0	W18:0	W19:0	W20:0	W21:0	W22:0	W23:0	W24:0	W25:0	W26:0	W27:0	W28:0	W29:0	W30:0	W31:408180	W32:572572
traffic_breakdown_coretomem[CONST_ACC_R] = 224 {8:28,}
traffic_breakdown_coretomem[GLOBAL_ACC_R] = 251072 {8:31384,}
traffic_breakdown_coretomem[GLOBAL_ACC_W] = 2056320 {136:15120,}
traffic_breakdown_coretomem[INST_ACC_R] = 3808 {8:476,}
traffic_breakdown_memtocore[CONST_ACC_R] = 2016 {72:28,}
traffic_breakdown_memtocore[GLOBAL_ACC_R] = 3542464 {40:7560,136:23824,}
traffic_breakdown_memtocore[GLOBAL_ACC_W] = 120960 {8:15120,}
traffic_breakdown_memtocore[INST_ACC_R] = 64736 {136:476,}
maxmrqlatency = 2035 
maxdqlatency = 0 
maxmflatency = 86766 
averagemflatency = 12325 
max_icnt2mem_latency = 86493 
max_icnt2sh_latency = 493805 
mrq_lat_table:14870 	1235 	825 	1521 	2003 	2911 	3841 	6268 	9478 	3608 	82 	0 	0 	0 	0 	0 	0 	0 	0 	0 	0 	0 	0 	0 	0 	0 	0 	0 	0 	0 	0 	0 	
dq_lat_table:0 	0 	0 	0 	0 	0 	0 	0 	0 	0 	0 	0 	0 	0 	0 	0 	0 	0 	0 	0 	0 	0 	0 	0 	0 	0 	0 	0 	0 	0 	0 	0 	
mf_lat_table:0 	0 	0 	0 	0 	0 	0 	22042 	9388 	371 	23 	256 	1098 	1534 	4288 	7290 	242 	0 	0 	0 	0 	0 	0 	0 	0 	0 	0 	0 	0 	0 	0 	0 	
icnt2mem_lat_table:0 	0 	22557 	207 	24 	0 	9477 	5 	0 	16 	14 	336 	1419 	1147 	4274 	7290 	242 	0 	0 	0 	0 	0 	0 	0 	
icnt2sh_lat_table:0 	0 	25397 	5846 	169 	0 	0 	0 	0 	0 	0 	0 	0 	0 	0 	0 	0 	1008 	14112 	0 	0 	0 	0 	0 	
mf_lat_pw_table:0 	0 	0 	0 	0 	0 	0 	83 	10 	1 	2 	3 	6 	9 	13 	14 	1 	0 	0 	0 	0 	0 	0 	0 	0 	0 	0 	0 	0 	0 	0 	0 	
maximum concurrent accesses to same row:
dram[0]:        32        32        32        32        32        32        32        32        32        32        32        32        32        32        32        32 
dram[1]:        32        32        32        32        32        32        32        32        32        32        32        32        32        32        32        32 
dram[2]:        32        32        32        32        32        32        32        32        32        32        32        32        32        32        32        32 
dram[3]:        32        32        32        32        32        32        32        32        32        32        32        32        32        32        32        32 
dram[4]:        32        32        32        32        32        32        32        32        32        32        32        32        32        32        32        32 
dram[5]:        32        32        32        32        32        32        32        32        32        32        32        32        32        32        32        32 
dram[6]:        32        32        32        32        32        32        32        32        32        32        32        32        32        32        32        32 
dram[7]:        32        32        32        32        32        32        32        32        32        32        32        32        32        32        32        32 
dram[8]:        32        32        32        32        32        32        32        32        32        32        32        32        32        32        32        32 
dram[9]:        32        32        32        32        32        32        32        32        32        32        32        32        32        32        32        32 
dram[10]:        32        32        32        32        32        32        32        32        32        32        32        32        32        32        32        32 
maximum service time to same row:
dram[0]:     61723     61853     62690     63070     62981     63377     62324     62655     63161     63362     61372     61286     60991     61447     61972     62384 
dram[1]:     61709     61713     62650     63070     62972     63406     62319     62618     63237     63575     61445     61360     61040     61525     61878     62285 
dram[2]:     61765     62138     62692     62883     63024     63428     62332     62693     63122     63391     61421     61318     60991     61473     61913     62359 
dram[3]:     61707     62088     62715     62813     63033     63387     62317     62591     63287     63528     61450     61368     61133     61496     61920     62320 
dram[4]:     61723     62149     62701     62700     63017     63409     62326     62682     63102     63408     61483     61505     61051     61481     62050     62466 
dram[5]:     61678     62155     62632     63044     63008     63430     62326     62679     63167     63445     61481     61770     61017     61457     61981     62359 
dram[6]:     61937     62355     62739     63184     63075     63446     62316     62676     63166     63431     61510     62064     60994     61008     61815     62246 
dram[7]:     61817     62248     62681     63091     63006     63172     62344     62668     63139     63424     61524     61431     61089     61025     61920     62294 
dram[8]:     61891     62286     62721     63114     63053     63492     62341     62708     63232     63466     61536     61562     61090     61009     61775     62181 
dram[9]:     61706     62118     62724     63043     63028     63373     62312     62697     63118     63426     61454     61377     61014     60910     62021     62218 
dram[10]:     61839     62258     62717     63170     63032     63462     62316     62648     63158     63430     61494     61527     61050     61538     61749     61885 
average row accesses per activate:
dram[0]: 20.214285 20.142857 17.000000 17.000000 22.727272 22.727272 22.727272 22.727272 22.363636 22.363636 16.133333 15.125000 22.153847 22.153847 22.230770 22.230770 
dram[1]: 17.625000 17.625000 19.000000 19.000000 23.272728 23.272728 22.727272 22.727272 22.363636 22.363636 15.187500 15.187500 24.000000 24.000000 20.642857 24.000000 
dram[2]: 20.571428 20.571428 16.625000 14.777778 23.272728 23.272728 22.727272 22.727272 22.363636 22.363636 16.200001 15.187500 24.000000 24.000000 23.500000 23.500000 
dram[3]: 22.153847 20.571428 19.000000 19.000000 23.272728 23.272728 22.727272 22.727272 22.363636 22.363636 13.500000 13.500000 20.571428 24.000000 23.500000 23.500000 
dram[4]: 20.571428 20.571428 16.625000 14.777778 22.909090 22.909090 23.272728 23.272728 22.363636 22.363636 16.200001 16.200001 24.000000 24.000000 21.769230 21.769230 
dram[5]: 21.692308 20.142857 19.285715 19.285715 22.909090 22.909090 23.272728 23.272728 22.363636 22.363636 15.187500 13.500000 24.000000 20.571428 21.769230 21.769230 
dram[6]: 16.588236 17.625000 16.875000 15.000000 22.909090 22.909090 23.272728 23.272728 22.363636 22.363636 13.500000 13.500000 23.500000 23.500000 20.642857 22.230770 
dram[7]: 20.142857 18.799999 16.875000 16.875000 22.909090 22.909090 23.272728 23.272728 22.000000 22.000000 15.562500 13.833333 20.142857 20.142857 20.642857 20.642857 
dram[8]: 16.588236 18.799999 16.875000 19.285715 22.727272 22.727272 23.272728 23.272728 22.000000 22.000000 15.562500 15.562500 23.500000 23.500000 20.642857 20.642857 
dram[9]: 20.571428 19.200001 16.875000 16.875000 22.727272 22.727272 23.272728 23.272728 21.909090 21.909090 15.562500 15.562500 20.142857 20.142857 21.769230 20.214285 
dram[10]: 18.000000 18.000000 19.285715 19.285715 22.727272 22.727272 23.272728 23.272728 21.909090 21.909090 15.312500 15.312500 24.000000 24.000000 18.866667 21.769230 
average row locality = 46642/2319 = 20.112980
number of total memory accesses made:
dram[0]:         0         0         0         0         0         0         0         0         0         0         0         0         0         0         0         0 
dram[1]:         0         0         0         0         0         0         0         0         0         0         0         0         0         0         0         0 
dram[2]:         0         0         0         0         0         0         0         0         0         0         0         0         0         0         0         0 
dram[3]:         0         0         0         0         0         0         0         0         0         0         0         0         0         0         0         0 
dram[4]:         0         0         0         0         0         0         0         0         0         0         0         0         0         0         0         0 
dram[5]:         0         0         0         0         0         0         0         0         0         0         0         0         0         0         0         0 
dram[6]:         0         0         0         0         0         0         0         0         0         0         0         0         0         0         0         0 
dram[7]:         0         0         0         0         0         0         0         0         0         0         0         0         0         0         0         0 
dram[8]:         0         0         0         0         0         0         0         0         0         0         0         0         0         0         0         0 
dram[9]:         0         0         0         0         0         0         0         0         0         0         0         0         0         0         0         0 
dram[10]:         0         0         0         0         0         0         0         0         0         0         0         0         0         0         0         0 
total accesses: 0
min_bank_accesses = 0!
min_chip_accesses = 0!
number of total read accesses:
dram[0]:       190       189       184       184       173       173       173       173       166       166       162       162       192       192       193       193 
dram[1]:       189       189       181       181       176       176       173       173       166       166       163       163       192       192       193       192 
dram[2]:       192       192       181       181       176       176       173       173       166       166       163       163       192       192       189       189 
dram[3]:       192       192       181       181       176       176       173       173       166       166       163       163       192       192       189       189 
dram[4]:       192       192       181       181       174       174       176       176       166       166       163       163       192       192       190       190 
dram[5]:       189       189       183       183       174       174       176       176       166       166       163       163       192       192       190       190 
dram[6]:       189       189       183       183       174       174       176       176       166       166       163       163       189       189       193       193 
dram[7]:       189       189       183       183       174       174       176       176       164       164       166       166       189       189       193       193 
dram[8]:       189       189       183       183       173       173       176       176       164       164       166       166       189       189       193       193 
dram[9]:       192       192       183       183       173       173       176       176       163       163       166       166       189       189       190       190 
dram[10]:       192       192       183       183       173       173       176       176       163       163       164       164       192       192       190       190 
total reads: 31522
bank skew: 193/162 = 1.19
chip skew: 2868/2864 = 1.00
number of total write accesses:
dram[0]:        93        93        88        88        77        77        77        77        80        80        80        80        96        96        96        96 
dram[1]:        93        93        85        85        80        80        77        77        80        80        80        80        96        96        96        96 
dram[2]:        96        96        85        85        80        80        77        77        80        80        80        80        96        96        93        93 
dram[3]:        96        96        85        85        80        80        77        77        80        80        80        80        96        96        93        93 
dram[4]:        96        96        85        85        78        78        80        80        80        80        80        80        96        96        93        93 
dram[5]:        93        93        87        87        78        78        80        80        80        80        80        80        96        96        93        93 
dram[6]:        93        93        87        87        78        78        80        80        80        80        80        80        93        93        96        96 
dram[7]:        93        93        87        87        78        78        80        80        78        78        83        83        93        93        96        96 
dram[8]:        93        93        87        87        77        77        80        80        78        78        83        83        93        93        96        96 
dram[9]:        96        96        87        87        77        77        80        80        78        78        83        83        93        93        93        93 
dram[10]:        96        96        87        87        77        77        80        80        78        78        81        81        96        96        93        93 
total reads: 15120
bank skew: 96/77 = 1.25
chip skew: 1376/1374 = 1.00
average mf latency per bank:
dram[0]:      11978     11305     13390     11238     13568     10003     10344      9753     12564     10826     19251     13812     15570     12068     11965     11414
dram[1]:      11992     11266     13288     11087     13523     10008     10329      9741     12562     10813     18942     13762     15570     12070     11950     11445
dram[2]:      12140     11426     13260     11066     13539     10005     10389      9797     12575     10828     18937     13751     15348     12050     11929     11362
dram[3]:      12138     11422     13380     11182     13528     10011     10373      9787     12558     10807     19025     13937     15364     12064     11899     11348
dram[4]:      12129     11429     13355     11152     13346     10005     10391      9779     12565     10811     19011     13932     15368     12061     11877     11319
dram[5]:      12060     11332     13404     11158     13344      9999     10394      9758     12571     10816     19103     14003     15377     12058     11873     11311
dram[6]:      12025     11291     13394     11123     13252      9904     10395      9788     12587     10814     19075     13979     15204     12131     11986     11410
dram[7]:      12010     11322     13387     11124     13245      9901     10553      9815     12422     10635     18952     13804     15197     12117     11986     11415
dram[8]:      11998     11314     13719     11247     13355      9902     10554      9814     12394     10605     18975     13824     15115     12030     11983     11417
dram[9]:      12131     11445     13702     11243     13338      9902     10484      9811     12447     10662     18951     13824     15093     12026     11825     11264
dram[10]:      12116     11434     13612     11260     13349      9900     10503      9810     12424     10646     19562     13912     15214     11989     11826     11245
maximum mf latency per bank:
dram[0]:      61194     60738     60940     60527     60138     59946     59708     59461     59941     59673     86765     61877     86523     62008     61589     61301
dram[1]:      61234     60905     61017     60600     60025     59790     59360     59006     59514     59129     86730     61837     86537     61930     61512     61251
dram[2]:      61719     61123     60587     60153     60305     59792     59645     59290     59913     59676     86736     61974     86528     61943     61560     61141
dram[3]:      61440     61066     61135     60568     60305     59890     59433     58948     59382     58918     86745     61917     86531     61852     61456     61070
dram[4]:      61586     61144     60591     60064     60449     60233     59426     59236     59421     59020     86733     61873     86527     61848     61360     61033
dram[5]:      61552     61276     61049     60612     59986     59503     59609     59265     59377     58916     86748     61747     86535     61757     61503     61263
dram[6]:      61555     61033     61261     60880     60388     60338     59346     59005     59708     59241     86738     61862     86528     85148     61316     61072
dram[7]:      61443     61081     60951     60592     59882     59427     59760     59438     60023     59660     86744     61890     86541     85980     61625     61297
dram[8]:      61134     60678     61035     60713     60369     60139     59383     59103     59507     58984     86733     61897     86527     61765     61332     61046
dram[9]:      61074     61014     60786     60416     60193     59817     59560     59633     59856     59531     86766     61974     86523     61627     61543     61248
dram[10]:      61407     60918     61009     60684     60478     60102     59398     58957     59222     58935     86732     61813     86531     61998     61483     61110
Memory Partition 0: 
Cache L2_bank_000:
MSHR contents

Cache L2_bank_001:
MSHR contents

In Dram Latency Queue (total = 0): 
DRAM[0]: 16 bks, busW=4 BL=8 CL=12, tRRD=2 tCCD=6, tRCD=12 tRAS=28 tRP=12 tRC=40
n_cmd=504424 n_nop=487064 n_act=210 n_pre=194 n_req=4239 n_rd=11460 n_write=5496 bw_util=0.06723
n_activity=49534 dram_eff=0.6846
bk0: 760a 489755i bk1: 756a 490283i bk2: 736a 489743i bk3: 736a 490079i bk4: 692a 492430i bk5: 692a 491532i bk6: 692a 492118i bk7: 692a 491924i bk8: 664a 491303i bk9: 664a 491053i bk10: 648a 490691i bk11: 648a 491301i bk12: 768a 488565i bk13: 768a 488977i bk14: 772a 489307i bk15: 772a 489004i 
dram_util_bins: 0 0 0 0 0 0 0 0 0 0
dram_eff_bins: 0 0 0 0 0 0 0 0 0 0
mrqq: max=64 avg=2.57385
Memory Partition 1: 
Cache L2_bank_002:
MSHR contents

Cache L2_bank_003:
MSHR contents

In Dram Latency Queue (total = 0): 
DRAM[1]: 16 bks, busW=4 BL=8 CL=12, tRRD=2 tCCD=6, tRCD=12 tRAS=28 tRP=12 tRC=40
n_cmd=504424 n_nop=487068 n_act=208 n_pre=192 n_req=4239 n_rd=11460 n_write=5496 bw_util=0.06723
n_activity=49212 dram_eff=0.6891
bk0: 756a 490791i bk1: 756a 490314i bk2: 724a 490307i bk3: 724a 490592i bk4: 704a 491648i bk5: 704a 491761i bk6: 692a 492118i bk7: 692a 492288i bk8: 664a 490919i bk9: 664a 491082i bk10: 652a 491054i bk11: 652a 490869i bk12: 768a 489259i bk13: 768a 489403i bk14: 772a 489291i bk15: 768a 489268i 
dram_util_bins: 0 0 0 0 0 0 0 0 0 0
dram_eff_bins: 0 0 0 0 0 0 0 0 0 0
mrqq: max=64 avg=2.57599
Memory Partition 2: 
Cache L2_bank_004:
MSHR contents

Cache L2_bank_005:
MSHR contents

In Dram Latency Queue (total = 0): 
DRAM[2]: 16 bks, busW=4 BL=8 CL=12, tRRD=2 tCCD=6, tRCD=12 tRAS=28 tRP=12 tRC=40
n_cmd=504424 n_nop=487074 n_act=207 n_pre=191 n_req=4238 n_rd=11456 n_write=5496 bw_util=0.06721
n_activity=49209 dram_eff=0.689
bk0: 768a 489722i bk1: 768a 490160i bk2: 724a 490249i bk3: 724a 490385i bk4: 704a 491099i bk5: 704a 491576i bk6: 692a 492221i bk7: 692a 491879i bk8: 664a 490865i bk9: 664a 490796i bk10: 652a 490528i bk11: 652a 490956i bk12: 768a 488585i bk13: 768a 488642i bk14: 756a 489552i bk15: 756a 489663i 
dram_util_bins: 0 0 0 0 0 0 0 0 0 0
dram_eff_bins: 0 0 0 0 0 0 0 0 0 0
mrqq: max=64 avg=2.56569
Memory Partition 3: 
Cache L2_bank_006:
MSHR contents

Cache L2_bank_007:
MSHR contents

In Dram Latency Queue (total = 0): 
DRAM[3]: 16 bks, busW=4 BL=8 CL=12, tRRD=2 tCCD=6, tRCD=12 tRAS=28 tRP=12 tRC=40
n_cmd=504424 n_nop=487074 n_act=207 n_pre=191 n_req=4238 n_rd=11456 n_write=5496 bw_util=0.06721
n_activity=48933 dram_eff=0.6929
bk0: 768a 490006i bk1: 768a 490196i bk2: 724a 490015i bk3: 724a 490739i bk4: 704a 491620i bk5: 704a 491348i bk6: 692a 492358i bk7: 692a 491995i bk8: 664a 490793i bk9: 664a 491019i bk10: 652a 490238i bk11: 652a 490418i bk12: 768a 488470i bk13: 768a 488951i bk14: 756a 489506i bk15: 756a 489331i 
dram_util_bins: 0 0 0 0 0 0 0 0 0 0
dram_eff_bins: 0 0 0 0 0 0 0 0 0 0
mrqq: max=64 avg=2.56611
Memory Partition 4: 
Cache L2_bank_008:
MSHR contents

Cache L2_bank_009:
MSHR contents
MSHR: tag=0xc0391e80, atomic=0 1 entries : 0x7fbb16ddc170 :  mf: uid=643081, sid07:w03, part=4, addr=0xc0391e80, load , size=128, unknown  status = IN_PARTITION_DRAM (493805), 

In Dram Latency Queue (total = 0): 
DRAM[4]: 16 bks, busW=4 BL=8 CL=12, tRRD=2 tCCD=6, tRCD=12 tRAS=28 tRP=12 tRC=40
n_cmd=504424 n_nop=487050 n_act=208 n_pre=192 n_req=4244 n_rd=11470 n_write=5504 bw_util=0.0673
n_activity=49128 dram_eff=0.691
bk0: 768a 490306i bk1: 766a 490421i bk2: 724a 490318i bk3: 724a 490845i bk4: 696a 491654i bk5: 696a 491766i bk6: 704a 492053i bk7: 704a 491402i bk8: 664a 490836i bk9: 664a 491038i bk10: 652a 490626i bk11: 652a 490248i bk12: 768a 488348i bk13: 768a 488703i bk14: 760a 489986i bk15: 760a 489847i 
dram_util_bins: 0 0 0 0 0 0 0 0 0 0
dram_eff_bins: 0 0 0 0 0 0 0 0 0 0
mrqq: max=64 avg=2.563
Memory Partition 5: 
Cache L2_bank_010:
MSHR contents

Cache L2_bank_011:
MSHR contents

In Dram Latency Queue (total = 0): 
DRAM[5]: 16 bks, busW=4 BL=8 CL=12, tRRD=2 tCCD=6, tRCD=12 tRAS=28 tRP=12 tRC=40
n_cmd=504424 n_nop=487066 n_act=207 n_pre=191 n_req=4240 n_rd=11464 n_write=5496 bw_util=0.06725
n_activity=49378 dram_eff=0.6869
bk0: 756a 490187i bk1: 756a 490010i bk2: 732a 490132i bk3: 732a 490018i bk4: 696a 492096i bk5: 696a 492165i bk6: 704a 491712i bk7: 704a 491783i bk8: 664a 491166i bk9: 664a 491439i bk10: 652a 490210i bk11: 652a 490059i bk12: 768a 488566i bk13: 768a 488623i bk14: 760a 489552i bk15: 760a 489547i 
dram_util_bins: 0 0 0 0 0 0 0 0 0 0
dram_eff_bins: 0 0 0 0 0 0 0 0 0 0
mrqq: max=64 avg=2.55958
Memory Partition 6: 
Cache L2_bank_012:
MSHR contents

Cache L2_bank_013:
MSHR contents

In Dram Latency Queue (total = 0): 
DRAM[6]: 16 bks, busW=4 BL=8 CL=12, tRRD=2 tCCD=6, tRCD=12 tRAS=28 tRP=12 tRC=40
n_cmd=504424 n_nop=487040 n_act=220 n_pre=204 n_req=4240 n_rd=11464 n_write=5496 bw_util=0.06725
n_activity=48881 dram_eff=0.6939
bk0: 756a 489414i bk1: 756a 490060i bk2: 732a 489619i bk3: 732a 490031i bk4: 696a 491426i bk5: 696a 491755i bk6: 704a 491750i bk7: 704a 491105i bk8: 664a 490603i bk9: 664a 490978i bk10: 652a 490007i bk11: 652a 490221i bk12: 756a 488633i bk13: 756a 488890i bk14: 772a 489478i bk15: 772a 488918i 
dram_util_bins: 0 0 0 0 0 0 0 0 0 0
dram_eff_bins: 0 0 0 0 0 0 0 0 0 0
mrqq: max=64 avg=2.54749
Memory Partition 7: 
Cache L2_bank_014:
MSHR contents

Cache L2_bank_015:
MSHR contents

In Dram Latency Queue (total = 0): 
DRAM[7]: 16 bks, busW=4 BL=8 CL=12, tRRD=2 tCCD=6, tRCD=12 tRAS=28 tRP=12 tRC=40
n_cmd=504424 n_nop=487030 n_act=217 n_pre=201 n_req=4244 n_rd=11472 n_write=5504 bw_util=0.06731
n_activity=49120 dram_eff=0.6912
bk0: 756a 489523i bk1: 756a 490005i bk2: 732a 490287i bk3: 732a 490616i bk4: 696a 491644i bk5: 696a 492078i bk6: 704a 491507i bk7: 704a 491318i bk8: 656a 491284i bk9: 656a 491422i bk10: 664a 489612i bk11: 664a 489648i bk12: 756a 488565i bk13: 756a 488942i bk14: 772a 489155i bk15: 772a 489121i 
dram_util_bins: 0 0 0 0 0 0 0 0 0 0
dram_eff_bins: 0 0 0 0 0 0 0 0 0 0
mrqq: max=64 avg=2.55756
Memory Partition 8: 
Cache L2_bank_016:
MSHR contents

Cache L2_bank_017:
MSHR contents

In Dram Latency Queue (total = 0): 
DRAM[8]: 16 bks, busW=4 BL=8 CL=12, tRRD=2 tCCD=6, tRCD=12 tRAS=28 tRP=12 tRC=40
n_cmd=504424 n_nop=487056 n_act=212 n_pre=196 n_req=4240 n_rd=11464 n_write=5496 bw_util=0.06725
n_activity=49189 dram_eff=0.6896
bk0: 756a 489885i bk1: 756a 489566i bk2: 732a 489635i bk3: 732a 489951i bk4: 692a 491853i bk5: 692a 491826i bk6: 704a 491614i bk7: 704a 491458i bk8: 656a 491225i bk9: 656a 491194i bk10: 664a 489309i bk11: 664a 489808i bk12: 756a 488662i bk13: 756a 488816i bk14: 772a 489148i bk15: 772a 488939i 
dram_util_bins: 0 0 0 0 0 0 0 0 0 0
dram_eff_bins: 0 0 0 0 0 0 0 0 0 0
mrqq: max=64 avg=2.55699
Memory Partition 9: 
Cache L2_bank_018:
MSHR contents

Cache L2_bank_019:
MSHR contents

In Dram Latency Queue (total = 0): 
DRAM[9]: 16 bks, busW=4 BL=8 CL=12, tRRD=2 tCCD=6, tRCD=12 tRAS=28 tRP=12 tRC=40
n_cmd=504424 n_nop=487060 n_act=214 n_pre=198 n_req=4238 n_rd=11456 n_write=5496 bw_util=0.06721
n_activity=49296 dram_eff=0.6878
bk0: 768a 489768i bk1: 768a 489593i bk2: 732a 490575i bk3: 732a 490698i bk4: 692a 492053i bk5: 692a 491801i bk6: 704a 491742i bk7: 704a 491264i bk8: 652a 491779i bk9: 652a 491542i bk10: 664a 489905i bk11: 664a 489851i bk12: 756a 488742i bk13: 756a 488892i bk14: 760a 489475i bk15: 760a 489635i 
dram_util_bins: 0 0 0 0 0 0 0 0 0 0
dram_eff_bins: 0 0 0 0 0 0 0 0 0 0
mrqq: max=64 avg=2.5584
Memory Partition 10: 
Cache L2_bank_020:
MSHR contents

Cache L2_bank_021:
MSHR contents

In Dram Latency Queue (total = 0): 
DRAM[10]: 16 bks, busW=4 BL=8 CL=12, tRRD=2 tCCD=6, tRCD=12 tRAS=28 tRP=12 tRC=40
n_cmd=504424 n_nop=487052 n_act=210 n_pre=194 n_req=4242 n_rd=11464 n_write=5504 bw_util=0.06728
n_activity=49351 dram_eff=0.6876
bk0: 768a 489592i bk1: 768a 489494i bk2: 732a 490162i bk3: 732a 489677i bk4: 692a 491569i bk5: 692a 491424i bk6: 704a 491309i bk7: 704a 491642i bk8: 652a 491680i bk9: 652a 491314i bk10: 656a 489881i bk11: 656a 490072i bk12: 768a 488641i bk13: 768a 488936i bk14: 760a 489451i bk15: 760a 489174i 
dram_util_bins: 0 0 0 0 0 0 0 0 0 0
dram_eff_bins: 0 0 0 0 0 0 0 0 0 0
mrqq: max=64 avg=2.55926

========= L2 cache stats =========
L2_cache_bank[0]: Access = 2169, Miss = 1433, Miss_rate = 0.661, Pending_hits = 31, Reservation_fails = 0
L2_cache_bank[1]: Access = 2140, Miss = 1432, Miss_rate = 0.669, Pending_hits = 109, Reservation_fails = 0
L2_cache_bank[2]: Access = 2141, Miss = 1433, Miss_rate = 0.669, Pending_hits = 3, Reservation_fails = 0
L2_cache_bank[3]: Access = 2114, Miss = 1432, Miss_rate = 0.677, Pending_hits = 103, Reservation_fails = 0
L2_cache_bank[4]: Access = 2115, Miss = 1432, Miss_rate = 0.677, Pending_hits = 1, Reservation_fails = 0
L2_cache_bank[5]: Access = 2115, Miss = 1432, Miss_rate = 0.677, Pending_hits = 111, Reservation_fails = 0
L2_cache_bank[6]: Access = 2113, Miss = 1432, Miss_rate = 0.678, Pending_hits = 0, Reservation_fails = 0
L2_cache_bank[7]: Access = 2112, Miss = 1432, Miss_rate = 0.678, Pending_hits = 104, Reservation_fails = 0
L2_cache_bank[8]: Access = 2142, Miss = 1434, Miss_rate = 0.669, Pending_hits = 27, Reservation_fails = 0
L2_cache_bank[9]: Access = 2143, Miss = 1434, Miss_rate = 0.669, Pending_hits = 134, Reservation_fails = 0
L2_cache_bank[10]: Access = 2142, Miss = 1433, Miss_rate = 0.669, Pending_hits = 27, Reservation_fails = 0
L2_cache_bank[11]: Access = 2141, Miss = 1433, Miss_rate = 0.669, Pending_hits = 131, Reservation_fails = 0
L2_cache_bank[12]: Access = 2140, Miss = 1433, Miss_rate = 0.670, Pending_hits = 28, Reservation_fails = 0
L2_cache_bank[13]: Access = 2141, Miss = 1433, Miss_rate = 0.669, Pending_hits = 131, Reservation_fails = 0
L2_cache_bank[14]: Access = 2144, Miss = 1434, Miss_rate = 0.669, Pending_hits = 30, Reservation_fails = 0
L2_cache_bank[15]: Access = 2144, Miss = 1434, Miss_rate = 0.669, Pending_hits = 137, Reservation_fails = 0
L2_cache_bank[16]: Access = 2142, Miss = 1433, Miss_rate = 0.669, Pending_hits = 29, Reservation_fails = 0
L2_cache_bank[17]: Access = 2141, Miss = 1433, Miss_rate = 0.669, Pending_hits = 133, Reservation_fails = 0
L2_cache_bank[18]: Access = 2140, Miss = 1432, Miss_rate = 0.669, Pending_hits = 4, Reservation_fails = 0
L2_cache_bank[19]: Access = 2141, Miss = 1432, Miss_rate = 0.669, Pending_hits = 112, Reservation_fails = 0
L2_cache_bank[20]: Access = 2144, Miss = 1433, Miss_rate = 0.668, Pending_hits = 2, Reservation_fails = 0
L2_cache_bank[21]: Access = 2144, Miss = 1433, Miss_rate = 0.668, Pending_hits = 108, Reservation_fails = 0
L2_total_cache_accesses = 47008
L2_total_cache_misses = 31522
L2_total_cache_miss_rate = 0.6706
L2_total_cache_pending_hits = 1495
L2_total_cache_reservation_fails = 0
L2_total_cache_breakdown:
	L2_cache_stats_breakdown[GLOBAL_ACC_R][HIT] = 13815
	L2_cache_stats_breakdown[GLOBAL_ACC_R][HIT_RESERVED] = 1185
	L2_cache_stats_breakdown[GLOBAL_ACC_R][MISS] = 16384
	L2_cache_stats_breakdown[GLOBAL_ACC_R][RESERVATION_FAIL] = 0
	L2_cache_stats_breakdown[LOCAL_ACC_R][HIT] = 0
	L2_cache_stats_breakdown[LOCAL_ACC_R][HIT_RESERVED] = 0
	L2_cache_stats_breakdown[LOCAL_ACC_R][MISS] = 0
	L2_cache_stats_breakdown[LOCAL_ACC_R][RESERVATION_FAIL] = 0
	L2_cache_stats_breakdown[CONST_ACC_R][HIT] = 0
	L2_cache_stats_breakdown[CONST_ACC_R][HIT_RESERVED] = 27
	L2_cache_stats_breakdown[CONST_ACC_R][MISS] = 1
	L2_cache_stats_breakdown[CONST_ACC_R][RESERVATION_FAIL] = 0
	L2_cache_stats_breakdown[TEXTURE_ACC_R][HIT] = 0
	L2_cache_stats_breakdown[TEXTURE_ACC_R][HIT_RESERVED] = 0
	L2_cache_stats_breakdown[TEXTURE_ACC_R][MISS] = 0
	L2_cache_stats_breakdown[TEXTURE_ACC_R][RESERVATION_FAIL] = 0
	L2_cache_stats_breakdown[GLOBAL_ACC_W][HIT] = 0
	L2_cache_stats_breakdown[GLOBAL_ACC_W][HIT_RESERVED] = 0
	L2_cache_stats_breakdown[GLOBAL_ACC_W][MISS] = 15120
	L2_cache_stats_breakdown[GLOBAL_ACC_W][RESERVATION_FAIL] = 0
	L2_cache_stats_breakdown[LOCAL_ACC_W][HIT] = 0
	L2_cache_stats_breakdown[LOCAL_ACC_W][HIT_RESERVED] = 0
	L2_cache_stats_breakdown[LOCAL_ACC_W][MISS] = 0
	L2_cache_stats_breakdown[LOCAL_ACC_W][RESERVATION_FAIL] = 0
	L2_cache_stats_breakdown[L1_WRBK_ACC][HIT] = 0
	L2_cache_stats_breakdown[L1_WRBK_ACC][HIT_RESERVED] = 0
	L2_cache_stats_breakdown[L1_WRBK_ACC][MISS] = 0
	L2_cache_stats_breakdown[L1_WRBK_ACC][RESERVATION_FAIL] = 0
	L2_cache_stats_breakdown[L2_WRBK_ACC][HIT] = 0
	L2_cache_stats_breakdown[L2_WRBK_ACC][HIT_RESERVED] = 0
	L2_cache_stats_breakdown[L2_WRBK_ACC][MISS] = 0
	L2_cache_stats_breakdown[L2_WRBK_ACC][RESERVATION_FAIL] = 0
	L2_cache_stats_breakdown[INST_ACC_R][HIT] = 176
	L2_cache_stats_breakdown[INST_ACC_R][HIT_RESERVED] = 283
	L2_cache_stats_breakdown[INST_ACC_R][MISS] = 17
	L2_cache_stats_breakdown[INST_ACC_R][RESERVATION_FAIL] = 0
	L2_cache_stats_breakdown[L1_WR_ALLOC_R][HIT] = 0
	L2_cache_stats_breakdown[L1_WR_ALLOC_R][HIT_RESERVED] = 0
	L2_cache_stats_breakdown[L1_WR_ALLOC_R][MISS] = 0
	L2_cache_stats_breakdown[L1_WR_ALLOC_R][RESERVATION_FAIL] = 0
	L2_cache_stats_breakdown[L2_WR_ALLOC_R][HIT] = 0
	L2_cache_stats_breakdown[L2_WR_ALLOC_R][HIT_RESERVED] = 0
	L2_cache_stats_breakdown[L2_WR_ALLOC_R][MISS] = 0
	L2_cache_stats_breakdown[L2_WR_ALLOC_R][RESERVATION_FAIL] = 0
	L2_cache_stats_breakdown[GLOBAL_ACC_R][TOTAL_ACCESS] = 31384
	L2_cache_stats_breakdown[CONST_ACC_R][TOTAL_ACCESS] = 28
	L2_cache_stats_breakdown[GLOBAL_ACC_W][TOTAL_ACCESS] = 15120
	L2_cache_stats_breakdown[INST_ACC_R][TOTAL_ACCESS] = 476
L2_cache_data_port_util = 0.006
L2_cache_fill_port_util = 0.021

icnt_total_pkts_mem_to_simt=151824
icnt_total_pkts_simt_to_mem=107488
LD_mem_lat_dist  0 0 0 0 0 0 0 0 0 0 0 0 0 0 0 0 0 0 0 0 0 0 0 0 0 0 0
ST_mem_lat_dist  0 0 0 0 0 0 0 0 0 0 0 0 0 0 0 0 0 0 0 0 0 0 0 0 0 0 0
----------------------------Interconnect-DETAILS--------------------------------
Class 0:
Packet latency average = 20.7808
	minimum = 6
	maximum = 1581
Network latency average = 17.015
	minimum = 6
	maximum = 1490
Slowest packet = 82198
Flit latency average = 19.362
	minimum = 6
	maximum = 1486
Slowest flit = 227814
Fragmentation average = 0.899772
	minimum = 0
	maximum = 1357
Injected packet rate average = 0.00346086
	minimum = 0.00274245 (at node 0)
	maximum = 0.00409711 (at node 3)
Accepted packet rate average = 0.00346086
	minimum = 0.00274245 (at node 0)
	maximum = 0.00409711 (at node 3)
Injected flit rate average = 0.00954564
	minimum = 0.00627634 (at node 0)
	maximum = 0.0129006 (at node 28)
Accepted flit rate average= 0.00954564
	minimum = 0.00884946 (at node 0)
	maximum = 0.0131932 (at node 3)
Injected packet length average = 2.75817
Accepted packet length average = 2.75817
Total in-flight flits = 0 (0 measured)
====== Overall Traffic Statistics ======
====== Traffic class 0 ======
Packet latency average = 20.7808 (1 samples)
	minimum = 6 (1 samples)
	maximum = 1581 (1 samples)
Network latency average = 17.015 (1 samples)
	minimum = 6 (1 samples)
	maximum = 1490 (1 samples)
Flit latency average = 19.362 (1 samples)
	minimum = 6 (1 samples)
	maximum = 1486 (1 samples)
Fragmentation average = 0.899772 (1 samples)
	minimum = 0 (1 samples)
	maximum = 1357 (1 samples)
Injected packet rate average = 0.00346086 (1 samples)
	minimum = 0.00274245 (1 samples)
	maximum = 0.00409711 (1 samples)
Accepted packet rate average = 0.00346086 (1 samples)
	minimum = 0.00274245 (1 samples)
	maximum = 0.00409711 (1 samples)
Injected flit rate average = 0.00954564 (1 samples)
	minimum = 0.00627634 (1 samples)
	maximum = 0.0129006 (1 samples)
Accepted flit rate average = 0.00954564 (1 samples)
	minimum = 0.00884946 (1 samples)
	maximum = 0.0131932 (1 samples)
Injected packet size average = 2.75817 (1 samples)
Accepted packet size average = 2.75817 (1 samples)
Hops average = 1 (1 samples)
----------------------------END-of-Interconnect-DETAILS-------------------------


gpgpu_simulation_time = 0 days, 0 hrs, 6 min, 28 sec (388 sec)
gpgpu_simulation_rate = 74352 (inst/sec)
gpgpu_simulation_rate = 1272 (cycle/sec)

GPGPU-Sim PTX: cudaLaunch for 0x0x401496 (mode=performance simulation) on stream 0
GPGPU-Sim PTX: pushing kernel '_Z24block2D_hybrid_coarsen_xffPfS_iii' to stream 0, gridDim= (2,32,1) blockDim = (32,4,1) 
GPGPU-Sim uArch: Shader 9 bind to kernel 2 '_Z24block2D_hybrid_coarsen_xffPfS_iii'
GPGPU-Sim uArch: Shader 10 bind to kernel 2 '_Z24block2D_hybrid_coarsen_xffPfS_iii'
GPGPU-Sim uArch: Shader 11 bind to kernel 2 '_Z24block2D_hybrid_coarsen_xffPfS_iii'
GPGPU-Sim uArch: Shader 12 bind to kernel 2 '_Z24block2D_hybrid_coarsen_xffPfS_iii'
GPGPU-Sim uArch: Shader 13 bind to kernel 2 '_Z24block2D_hybrid_coarsen_xffPfS_iii'
GPGPU-Sim uArch: Shader 14 bind to kernel 2 '_Z24block2D_hybrid_coarsen_xffPfS_iii'
GPGPU-Sim uArch: Shader 15 bind to kernel 2 '_Z24block2D_hybrid_coarsen_xffPfS_iii'
GPGPU-Sim uArch: Shader 16 bind to kernel 2 '_Z24block2D_hybrid_coarsen_xffPfS_iii'
GPGPU-Sim uArch: Shader 17 bind to kernel 2 '_Z24block2D_hybrid_coarsen_xffPfS_iii'
GPGPU-Sim uArch: Shader 18 bind to kernel 2 '_Z24block2D_hybrid_coarsen_xffPfS_iii'
GPGPU-Sim uArch: Shader 19 bind to kernel 2 '_Z24block2D_hybrid_coarsen_xffPfS_iii'
GPGPU-Sim uArch: Shader 20 bind to kernel 2 '_Z24block2D_hybrid_coarsen_xffPfS_iii'
GPGPU-Sim uArch: Shader 21 bind to kernel 2 '_Z24block2D_hybrid_coarsen_xffPfS_iii'
GPGPU-Sim uArch: Shader 22 bind to kernel 2 '_Z24block2D_hybrid_coarsen_xffPfS_iii'
GPGPU-Sim uArch: Shader 23 bind to kernel 2 '_Z24block2D_hybrid_coarsen_xffPfS_iii'
GPGPU-Sim uArch: Shader 24 bind to kernel 2 '_Z24block2D_hybrid_coarsen_xffPfS_iii'
GPGPU-Sim uArch: Shader 25 bind to kernel 2 '_Z24block2D_hybrid_coarsen_xffPfS_iii'
GPGPU-Sim uArch: Shader 26 bind to kernel 2 '_Z24block2D_hybrid_coarsen_xffPfS_iii'
GPGPU-Sim uArch: Shader 27 bind to kernel 2 '_Z24block2D_hybrid_coarsen_xffPfS_iii'
GPGPU-Sim uArch: Shader 0 bind to kernel 2 '_Z24block2D_hybrid_coarsen_xffPfS_iii'
GPGPU-Sim uArch: Shader 1 bind to kernel 2 '_Z24block2D_hybrid_coarsen_xffPfS_iii'
GPGPU-Sim uArch: Shader 2 bind to kernel 2 '_Z24block2D_hybrid_coarsen_xffPfS_iii'
GPGPU-Sim uArch: Shader 3 bind to kernel 2 '_Z24block2D_hybrid_coarsen_xffPfS_iii'
GPGPU-Sim uArch: Shader 4 bind to kernel 2 '_Z24block2D_hybrid_coarsen_xffPfS_iii'
GPGPU-Sim uArch: Shader 5 bind to kernel 2 '_Z24block2D_hybrid_coarsen_xffPfS_iii'
GPGPU-Sim uArch: Shader 6 bind to kernel 2 '_Z24block2D_hybrid_coarsen_xffPfS_iii'
GPGPU-Sim uArch: Shader 7 bind to kernel 2 '_Z24block2D_hybrid_coarsen_xffPfS_iii'
GPGPU-Sim uArch: Shader 8 bind to kernel 2 '_Z24block2D_hybrid_coarsen_xffPfS_iii'
Destroy streams for kernel 2: size 0
kernel_name = _Z24block2D_hybrid_coarsen_xffPfS_iii 
kernel_launch_uid = 2 
gpu_sim_cycle = 41653
gpu_sim_insn = 28848876
gpu_ipc =     692.6002
gpu_tot_sim_cycle = 757609
gpu_tot_sim_insn = 57697752
gpu_tot_ipc =      76.1577
gpu_tot_issued_cta = 128
max_total_param_size = 0
gpu_stall_dramfull = 83580
gpu_stall_icnt2sh    = 2856
partiton_reqs_in_parallel = 916366
partiton_reqs_in_parallel_total    = 5892852
partiton_level_parallism =      22.0000
partiton_level_parallism_total  =       8.9878
partiton_reqs_in_parallel_util = 916366
partiton_reqs_in_parallel_util_total    = 5892852
gpu_sim_cycle_parition_util = 41653
gpu_tot_sim_cycle_parition_util    = 270522
partiton_level_parallism_util =      22.0000
partiton_level_parallism_util_total  =      21.8122
partiton_replys_in_parallel = 46504
partiton_replys_in_parallel_total    = 47008
L2_BW  =     105.8228 GB/Sec
L2_BW_total  =      11.6992 GB/Sec
gpu_total_sim_rate=114252

========= Core cache stats =========
L1I_cache:
	L1I_total_cache_accesses = 1158456
	L1I_total_cache_misses = 3182
	L1I_total_cache_miss_rate = 0.0027
	L1I_total_cache_pending_hits = 0
	L1I_total_cache_reservation_fails = 0
L1D_cache:
	L1D_cache_core[0]: Access = 0, Miss = 0, Miss_rate = -nan, Pending_hits = 0, Reservation_fails = 0
	L1D_cache_core[1]: Access = 0, Miss = 0, Miss_rate = -nan, Pending_hits = 0, Reservation_fails = 0
	L1D_cache_core[2]: Access = 0, Miss = 0, Miss_rate = -nan, Pending_hits = 0, Reservation_fails = 0
	L1D_cache_core[3]: Access = 0, Miss = 0, Miss_rate = -nan, Pending_hits = 0, Reservation_fails = 0
	L1D_cache_core[4]: Access = 0, Miss = 0, Miss_rate = -nan, Pending_hits = 0, Reservation_fails = 0
	L1D_cache_core[5]: Access = 0, Miss = 0, Miss_rate = -nan, Pending_hits = 0, Reservation_fails = 0
	L1D_cache_core[6]: Access = 0, Miss = 0, Miss_rate = -nan, Pending_hits = 0, Reservation_fails = 0
	L1D_cache_core[7]: Access = 0, Miss = 0, Miss_rate = -nan, Pending_hits = 0, Reservation_fails = 0
	L1D_cache_core[8]: Access = 0, Miss = 0, Miss_rate = -nan, Pending_hits = 0, Reservation_fails = 0
	L1D_cache_core[9]: Access = 0, Miss = 0, Miss_rate = -nan, Pending_hits = 0, Reservation_fails = 0
	L1D_cache_core[10]: Access = 0, Miss = 0, Miss_rate = -nan, Pending_hits = 0, Reservation_fails = 0
	L1D_cache_core[11]: Access = 0, Miss = 0, Miss_rate = -nan, Pending_hits = 0, Reservation_fails = 0
	L1D_cache_core[12]: Access = 0, Miss = 0, Miss_rate = -nan, Pending_hits = 0, Reservation_fails = 0
	L1D_cache_core[13]: Access = 0, Miss = 0, Miss_rate = -nan, Pending_hits = 0, Reservation_fails = 0
	L1D_cache_core[14]: Access = 0, Miss = 0, Miss_rate = -nan, Pending_hits = 0, Reservation_fails = 0
	L1D_cache_core[15]: Access = 0, Miss = 0, Miss_rate = -nan, Pending_hits = 0, Reservation_fails = 0
	L1D_cache_core[16]: Access = 0, Miss = 0, Miss_rate = -nan, Pending_hits = 0, Reservation_fails = 0
	L1D_cache_core[17]: Access = 0, Miss = 0, Miss_rate = -nan, Pending_hits = 0, Reservation_fails = 0
	L1D_cache_core[18]: Access = 0, Miss = 0, Miss_rate = -nan, Pending_hits = 0, Reservation_fails = 0
	L1D_cache_core[19]: Access = 0, Miss = 0, Miss_rate = -nan, Pending_hits = 0, Reservation_fails = 0
	L1D_cache_core[20]: Access = 0, Miss = 0, Miss_rate = -nan, Pending_hits = 0, Reservation_fails = 0
	L1D_cache_core[21]: Access = 0, Miss = 0, Miss_rate = -nan, Pending_hits = 0, Reservation_fails = 0
	L1D_cache_core[22]: Access = 0, Miss = 0, Miss_rate = -nan, Pending_hits = 0, Reservation_fails = 0
	L1D_cache_core[23]: Access = 0, Miss = 0, Miss_rate = -nan, Pending_hits = 0, Reservation_fails = 0
	L1D_cache_core[24]: Access = 0, Miss = 0, Miss_rate = -nan, Pending_hits = 0, Reservation_fails = 0
	L1D_cache_core[25]: Access = 0, Miss = 0, Miss_rate = -nan, Pending_hits = 0, Reservation_fails = 0
	L1D_cache_core[26]: Access = 0, Miss = 0, Miss_rate = -nan, Pending_hits = 0, Reservation_fails = 0
	L1D_cache_core[27]: Access = 0, Miss = 0, Miss_rate = -nan, Pending_hits = 0, Reservation_fails = 0
	L1D_total_cache_accesses = 0
	L1D_total_cache_misses = 0
	L1D_total_cache_pending_hits = 0
	L1D_total_cache_reservation_fails = 0
	L1D_cache_data_port_util = 0.000
	L1D_cache_fill_port_util = 0.000
L1C_cache:
	L1C_total_cache_accesses = 3584
	L1C_total_cache_misses = 1632
	L1C_total_cache_miss_rate = 0.4554
	L1C_total_cache_pending_hits = 0
	L1C_total_cache_reservation_fails = 1444
L1T_cache:
	L1T_total_cache_accesses = 0
	L1T_total_cache_misses = 0
	L1T_total_cache_pending_hits = 0
	L1T_total_cache_reservation_fails = 0

Total_core_cache_stats:
	Total_core_cache_stats_breakdown[GLOBAL_ACC_R][HIT] = 0
	Total_core_cache_stats_breakdown[GLOBAL_ACC_R][HIT_RESERVED] = 0
	Total_core_cache_stats_breakdown[GLOBAL_ACC_R][MISS] = 0
	Total_core_cache_stats_breakdown[GLOBAL_ACC_R][RESERVATION_FAIL] = 0
	Total_core_cache_stats_breakdown[LOCAL_ACC_R][HIT] = 0
	Total_core_cache_stats_breakdown[LOCAL_ACC_R][HIT_RESERVED] = 0
	Total_core_cache_stats_breakdown[LOCAL_ACC_R][MISS] = 0
	Total_core_cache_stats_breakdown[LOCAL_ACC_R][RESERVATION_FAIL] = 0
[...]
----------------------------Interconnect-DETAILS--------------------------------
Class 0:
Packet latency average = 8.5521
	minimum = 6
	maximum = 44
Network latency average = 8.42333
	minimum = 6
	maximum = 42
Slowest packet = 3629046
Flit latency average = 6.88759
	minimum = 6
	maximum = 38
Slowest flit = 10074772
Fragmentation average = 0
	minimum = 0
	maximum = 0
Injected packet rate average = 0.023541
	minimum = 0.0186287 (at node 0)
	maximum = 0.027943 (at node 7)
Accepted packet rate average = 0.023541
	minimum = 0.0186287 (at node 0)
	maximum = 0.027943 (at node 7)
Injected flit rate average = 0.0648824
	minimum = 0.0429269 (at node 0)
	maximum = 0.0860057 (at node 42)
Accepted flit rate average= 0.0648824
	minimum = 0.0597332 (at node 0)
	maximum = 0.0895998 (at node 7)
Injected packet length average = 2.75615
Accepted packet length average = 2.75615
Total in-flight flits = 0 (0 measured)
====== Overall Traffic Statistics ======
====== Traffic class 0 ======
Packet latency average = 8.86483 (40 samples)
	minimum = 6 (40 samples)
	maximum = 85.475 (40 samples)
Network latency average = 8.6413 (40 samples)
	minimum = 6 (40 samples)
	maximum = 80.825 (40 samples)
Flit latency average = 7.19985 (40 samples)
	minimum = 6 (40 samples)
	maximum = 76.975 (40 samples)
Fragmentation average = 0.0224943 (40 samples)
	minimum = 0 (40 samples)
	maximum = 33.925 (40 samples)
Injected packet rate average = 0.0230762 (40 samples)
	minimum = 0.018261 (40 samples)
	maximum = 0.0273911 (40 samples)
Accepted packet rate average = 0.0230762 (40 samples)
	minimum = 0.018261 (40 samples)
	maximum = 0.0273911 (40 samples)
Injected flit rate average = 0.0636017 (40 samples)
	minimum = 0.0420786 (40 samples)
	maximum = 0.0843142 (40 samples)
Accepted flit rate average = 0.0636017 (40 samples)
	minimum = 0.0585557 (40 samples)
	maximum = 0.0878315 (40 samples)
Injected packet size average = 2.75616 (40 samples)
Accepted packet size average = 2.75616 (40 samples)
Hops average = 1 (40 samples)
----------------------------END-of-Interconnect-DETAILS-------------------------


gpgpu_simulation_time = 0 days, 1 hrs, 21 min, 23 sec (4883 sec)
gpgpu_simulation_rate = 236320 (inst/sec)
gpgpu_simulation_rate = 2190 (cycle/sec)
========================================UVM statistics==============================
========================================TLB statistics(access)==============================
Shader0: Tlb_access: 66226 Tlb_hit: 62726 Tlb_miss: 3500 Tlb_hit_rate: 0.947151
Shader1: Tlb_access: 66812 Tlb_hit: 63080 Tlb_miss: 3732 Tlb_hit_rate: 0.944142
Shader2: Tlb_access: 66812 Tlb_hit: 63027 Tlb_miss: 3785 Tlb_hit_rate: 0.943349
Shader3: Tlb_access: 66812 Tlb_hit: 63184 Tlb_miss: 3628 Tlb_hit_rate: 0.945698
Shader4: Tlb_access: 66812 Tlb_hit: 63184 Tlb_miss: 3628 Tlb_hit_rate: 0.945698
Shader5: Tlb_access: 66812 Tlb_hit: 63154 Tlb_miss: 3658 Tlb_hit_rate: 0.945249
Shader6: Tlb_access: 66812 Tlb_hit: 63097 Tlb_miss: 3715 Tlb_hit_rate: 0.944396
Shader7: Tlb_access: 66812 Tlb_hit: 63175 Tlb_miss: 3637 Tlb_hit_rate: 0.945564
Shader8: Tlb_access: 66812 Tlb_hit: 63190 Tlb_miss: 3622 Tlb_hit_rate: 0.945788
Shader9: Tlb_access: 66812 Tlb_hit: 63141 Tlb_miss: 3671 Tlb_hit_rate: 0.945055
Shader10: Tlb_access: 66812 Tlb_hit: 63093 Tlb_miss: 3719 Tlb_hit_rate: 0.944336
Shader11: Tlb_access: 66812 Tlb_hit: 63288 Tlb_miss: 3524 Tlb_hit_rate: 0.947255
Shader12: Tlb_access: 66812 Tlb_hit: 63307 Tlb_miss: 3505 Tlb_hit_rate: 0.947539
Shader13: Tlb_access: 66226 Tlb_hit: 62672 Tlb_miss: 3554 Tlb_hit_rate: 0.946335
Shader14: Tlb_access: 66226 Tlb_hit: 62637 Tlb_miss: 3589 Tlb_hit_rate: 0.945807
Shader15: Tlb_access: 66076 Tlb_hit: 62517 Tlb_miss: 3559 Tlb_hit_rate: 0.946138
Shader16: Tlb_access: 66076 Tlb_hit: 62533 Tlb_miss: 3543 Tlb_hit_rate: 0.946380
Shader17: Tlb_access: 66076 Tlb_hit: 62403 Tlb_miss: 3673 Tlb_hit_rate: 0.944412
Shader18: Tlb_access: 66076 Tlb_hit: 62358 Tlb_miss: 3718 Tlb_hit_rate: 0.943731
Shader19: Tlb_access: 66226 Tlb_hit: 62703 Tlb_miss: 3523 Tlb_hit_rate: 0.946803
Shader20: Tlb_access: 66226 Tlb_hit: 62702 Tlb_miss: 3524 Tlb_hit_rate: 0.946788
Shader21: Tlb_access: 66226 Tlb_hit: 62669 Tlb_miss: 3557 Tlb_hit_rate: 0.946290
Shader22: Tlb_access: 66226 Tlb_hit: 62601 Tlb_miss: 3625 Tlb_hit_rate: 0.945263
Shader23: Tlb_access: 66076 Tlb_hit: 62522 Tlb_miss: 3554 Tlb_hit_rate: 0.946213
Shader24: Tlb_access: 66076 Tlb_hit: 62558 Tlb_miss: 3518 Tlb_hit_rate: 0.946758
Shader25: Tlb_access: 66076 Tlb_hit: 62407 Tlb_miss: 3669 Tlb_hit_rate: 0.944473
Shader26: Tlb_access: 66076 Tlb_hit: 62363 Tlb_miss: 3713 Tlb_hit_rate: 0.943807
Shader27: Tlb_access: 66226 Tlb_hit: 62704 Tlb_miss: 3522 Tlb_hit_rate: 0.946818
Tlb_tot_access: 1860160 Tlb_tot_hit: 1758995, Tlb_tot_miss: 101165, Tlb_tot_hit_rate: 0.945615
========================================TLB statistics(validate)==============================
Shader0: Tlb_validate: 1024 Tlb_invalidate: 960 Tlb_evict: 0 Tlb_page_evict: 960
Shader1: Tlb_validate: 1024 Tlb_invalidate: 960 Tlb_evict: 0 Tlb_page_evict: 960
Shader2: Tlb_validate: 1024 Tlb_invalidate: 960 Tlb_evict: 0 Tlb_page_evict: 960
Shader3: Tlb_validate: 1024 Tlb_invalidate: 960 Tlb_evict: 0 Tlb_page_evict: 960
Shader4: Tlb_validate: 1024 Tlb_invalidate: 960 Tlb_evict: 0 Tlb_page_evict: 960
Shader5: Tlb_validate: 1024 Tlb_invalidate: 960 Tlb_evict: 0 Tlb_page_evict: 960
Shader6: Tlb_validate: 1024 Tlb_invalidate: 960 Tlb_evict: 0 Tlb_page_evict: 960
Shader7: Tlb_validate: 1024 Tlb_invalidate: 960 Tlb_evict: 0 Tlb_page_evict: 960
Shader8: Tlb_validate: 1024 Tlb_invalidate: 960 Tlb_evict: 0 Tlb_page_evict: 960
Shader9: Tlb_validate: 1024 Tlb_invalidate: 960 Tlb_evict: 0 Tlb_page_evict: 960
Shader10: Tlb_validate: 1024 Tlb_invalidate: 960 Tlb_evict: 0 Tlb_page_evict: 960
Shader11: Tlb_validate: 1024 Tlb_invalidate: 960 Tlb_evict: 0 Tlb_page_evict: 960
Shader12: Tlb_validate: 1024 Tlb_invalidate: 960 Tlb_evict: 0 Tlb_page_evict: 960
Shader13: Tlb_validate: 1024 Tlb_invalidate: 960 Tlb_evict: 0 Tlb_page_evict: 960
Shader14: Tlb_validate: 1024 Tlb_invalidate: 960 Tlb_evict: 0 Tlb_page_evict: 960
Shader15: Tlb_validate: 1024 Tlb_invalidate: 960 Tlb_evict: 0 Tlb_page_evict: 960
Shader16: Tlb_validate: 1024 Tlb_invalidate: 960 Tlb_evict: 0 Tlb_page_evict: 960
Shader17: Tlb_validate: 1024 Tlb_invalidate: 960 Tlb_evict: 0 Tlb_page_evict: 960
Shader18: Tlb_validate: 1024 Tlb_invalidate: 960 Tlb_evict: 0 Tlb_page_evict: 960
Shader19: Tlb_validate: 1024 Tlb_invalidate: 960 Tlb_evict: 0 Tlb_page_evict: 960
Shader20: Tlb_validate: 1024 Tlb_invalidate: 960 Tlb_evict: 0 Tlb_page_evict: 960
Shader21: Tlb_validate: 1024 Tlb_invalidate: 960 Tlb_evict: 0 Tlb_page_evict: 960
Shader22: Tlb_validate: 1024 Tlb_invalidate: 960 Tlb_evict: 0 Tlb_page_evict: 960
Shader23: Tlb_validate: 1024 Tlb_invalidate: 960 Tlb_evict: 0 Tlb_page_evict: 960
Shader24: Tlb_validate: 1024 Tlb_invalidate: 960 Tlb_evict: 0 Tlb_page_evict: 960
Shader25: Tlb_validate: 1024 Tlb_invalidate: 960 Tlb_evict: 0 Tlb_page_evict: 960
Shader26: Tlb_validate: 1024 Tlb_invalidate: 960 Tlb_evict: 0 Tlb_page_evict: 960
Shader27: Tlb_validate: 1024 Tlb_invalidate: 960 Tlb_evict: 0 Tlb_page_evict: 960
Tlb_tot_valiate: 28672 Tlb_invalidate: 26880, Tlb_tot_evict: 0, Tlb_tot_evict page: 26880
========================================TLB statistics(threshing)==============================
Shader0: Total 0
Shader1: Total 0
Shader2: Total 0
Shader3: Total 0
Shader4: Total 0
Shader5: Total 0
Shader6: Total 0
Shader7: Total 0
Shader8: Total 0
Shader9: Total 0
Shader10: Total 0
Shader11: Total 0
Shader12: Total 0
Shader13: Total 0
Shader14: Total 0
Shader15: Total 0
Shader16: Total 0
Shader17: Total 0
Shader18: Total 0
Shader19: Total 0
Shader20: Total 0
Shader21: Total 0
Shader22: Total 0
Shader23: Total 0
Shader24: Total 0
Shader25: Total 0
Shader26: Total 0
Shader27: Total 0
Tlb_tot_thresh: 0
========================================Page fault statistics==============================
Shader0: Page_table_access:3500 Page_hit: 3035 Page_miss: 465 Page_hit_rate: 0.867143 Page_fault: 1 Page_pending: 463
Shader1: Page_table_access:3732 Page_hit: 3064 Page_miss: 668 Page_hit_rate: 0.821007 Page_fault: 1 Page_pending: 667
Shader2: Page_table_access:3785 Page_hit: 3117 Page_miss: 668 Page_hit_rate: 0.823514 Page_fault: 2 Page_pending: 663
Shader3: Page_table_access:3628 Page_hit: 2912 Page_miss: 716 Page_hit_rate: 0.802646 Page_fault: 2 Page_pending: 714
Shader4: Page_table_access:3628 Page_hit: 2912 Page_miss: 716 Page_hit_rate: 0.802646 Page_fault: 1 Page_pending: 714
Shader5: Page_table_access:3658 Page_hit: 2962 Page_miss: 696 Page_hit_rate: 0.809732 Page_fault: 0 Page_pending: 696
Shader6: Page_table_access:3715 Page_hit: 3019 Page_miss: 696 Page_hit_rate: 0.812651 Page_fault: 0 Page_pending: 696
Shader7: Page_table_access:3637 Page_hit: 2989 Page_miss: 648 Page_hit_rate: 0.821831 Page_fault: 0 Page_pending: 648
Shader8: Page_table_access:3622 Page_hit: 2974 Page_miss: 648 Page_hit_rate: 0.821093 Page_fault: 0 Page_pending: 648
Shader9: Page_table_access:3671 Page_hit: 3207 Page_miss: 464 Page_hit_rate: 0.873604 Page_fault: 0 Page_pending: 464
Shader10: Page_table_access:3719 Page_hit: 3255 Page_miss: 464 Page_hit_rate: 0.875235 Page_fault: 0 Page_pending: 464
Shader11: Page_table_access:3524 Page_hit: 3060 Page_miss: 464 Page_hit_rate: 0.868331 Page_fault: 0 Page_pending: 464
Shader12: Page_table_access:3505 Page_hit: 3041 Page_miss: 464 Page_hit_rate: 0.867618 Page_fault: 0 Page_pending: 464
Shader13: Page_table_access:3554 Page_hit: 3090 Page_miss: 464 Page_hit_rate: 0.869443 Page_fault: 0 Page_pending: 464
Shader14: Page_table_access:3589 Page_hit: 3125 Page_miss: 464 Page_hit_rate: 0.870716 Page_fault: 0 Page_pending: 464
Shader15: Page_table_access:3559 Page_hit: 3095 Page_miss: 464 Page_hit_rate: 0.869626 Page_fault: 1 Page_pending: 464
Shader16: Page_table_access:3543 Page_hit: 3079 Page_miss: 464 Page_hit_rate: 0.869038 Page_fault: 0 Page_pending: 464
Shader17: Page_table_access:3673 Page_hit: 3209 Page_miss: 464 Page_hit_rate: 0.873673 Page_fault: 0 Page_pending: 464
Shader18: Page_table_access:3718 Page_hit: 3254 Page_miss: 464 Page_hit_rate: 0.875202 Page_fault: 0 Page_pending: 464
Shader19: Page_table_access:3523 Page_hit: 3059 Page_miss: 464 Page_hit_rate: 0.868294 Page_fault: 1 Page_pending: 464
Shader20: Page_table_access:3524 Page_hit: 3060 Page_miss: 464 Page_hit_rate: 0.868331 Page_fault: 0 Page_pending: 464
Shader21: Page_table_access:3557 Page_hit: 3093 Page_miss: 464 Page_hit_rate: 0.869553 Page_fault: 1 Page_pending: 464
Shader22: Page_table_access:3625 Page_hit: 3161 Page_miss: 464 Page_hit_rate: 0.872000 Page_fault: 0 Page_pending: 464
Shader23: Page_table_access:3554 Page_hit: 3090 Page_miss: 464 Page_hit_rate: 0.869443 Page_fault: 0 Page_pending: 464
Shader24: Page_table_access:3518 Page_hit: 3054 Page_miss: 464 Page_hit_rate: 0.868107 Page_fault: 1 Page_pending: 464
Shader25: Page_table_access:3669 Page_hit: 3205 Page_miss: 464 Page_hit_rate: 0.873535 Page_fault: 0 Page_pending: 464
Shader26: Page_table_access:3713 Page_hit: 3249 Page_miss: 464 Page_hit_rate: 0.875034 Page_fault: 0 Page_pending: 464
Shader27: Page_table_access:3522 Page_hit: 3057 Page_miss: 465 Page_hit_rate: 0.867973 Page_fault: 1 Page_pending: 465
Page_talbe_tot_access: 101165 Page_tot_hit: 86427, Page_tot_miss 14738, Page_tot_hit_rate: 0.854317 Page_tot_fault: 12 Page_tot_pending: 14726
Total_memory_access_page_fault: 12, Average_latency 284555.375000
========================================Page threshing statistics==============================
Page_validate: 1024 Page_evict_diry: 0 Page_evict_not_diry: 0
Page_tot_thresh: 0
========================================Memory access statistics==============================
========================================Prefetch statistics==============================
Tot_page_hit: 0, Tot_page_miss: 0, Tot_page_fault: 0
Avg_page_latency: 0.000000, Avg_prefetch_size: -nan, Avg_prefetch_latency: 0.000000
========================================PCI-e statistics==============================
Pcie_read_utilization: 0.695588
[0-25]: 0.050012, [26-50]: 0.000000, [51-75]: 0.949988, [76-100]: 0.000000
Pcie_write_utilization: 0.000000
[0-25]: -nan, [26-50]: -nan, [51-75]: -nan, [76-100]: -nan
F:   222150----T:   493806 	 	 	 Kl: 1 	 Sm: 0 	 T: kernel_launch(183.427414)
F:   223546----T:   225866 	 St: c0000000 Sz: 28672 	 Sm: 0 	 T: memcpy_h2d(1.566509)
F:   225866----T:   228623 	 St: c0007000 Sz: 36864 	 Sm: 0 	 T: memcpy_h2d(1.861580)
F:   228623----T:   230943 	 St: c0010000 Sz: 28672 	 Sm: 0 	 T: memcpy_h2d(1.566509)
F:   230943----T:   233700 	 St: c0017000 Sz: 36864 	 Sm: 0 	 T: memcpy_h2d(1.861580)
F:   233700----T:   235002 	 St: c0020000 Sz: 4096 	 Sm: 0 	 T: memcpy_h2d(0.879136)
F:   235002----T:   242849 	 St: c0021000 Sz: 126976 	 Sm: 0 	 T: memcpy_h2d(5.298447)
F:   242849----T:   244151 	 St: c0210000 Sz: 4096 	 Sm: 0 	 T: memcpy_h2d(0.879136)
F:   244151----T:   248271 	 St: c0211000 Sz: 61440 	 Sm: 0 	 T: memcpy_h2d(2.781904)
F:   248271----T:   249573 	 St: c0220000 Sz: 4096 	 Sm: 0 	 T: memcpy_h2d(0.879136)
F:   249573----T:   253693 	 St: c0221000 Sz: 61440 	 Sm: 0 	 T: memcpy_h2d(2.781904)
F:   253693----T:   254995 	 St: c0040000 Sz: 4096 	 Sm: 0 	 T: memcpy_h2d(0.879136)
F:   254995----T:   270356 	 St: c0041000 Sz: 258048 	 Sm: 0 	 T: memcpy_h2d(10.372046)
F:   270356----T:   271658 	 St: c0230000 Sz: 4096 	 Sm: 0 	 T: memcpy_h2d(0.879136)
F:   271658----T:   279505 	 St: c0231000 Sz: 126976 	 Sm: 0 	 T: memcpy_h2d(5.298447)
F:   279505----T:   280807 	 St: c0250000 Sz: 4096 	 Sm: 0 	 T: memcpy_h2d(0.879136)
F:   280807----T:   296168 	 St: c0251000 Sz: 258048 	 Sm: 0 	 T: memcpy_h2d(10.372046)
F:   296168----T:   297470 	 St: c0080000 Sz: 4096 	 Sm: 0 	 T: memcpy_h2d(0.879136)
F:   297470----T:   327888 	 St: c0081000 Sz: 520192 	 Sm: 0 	 T: memcpy_h2d(20.538826)
F:   329633----T:   330935 	 St: c0290000 Sz: 4096 	 Sm: 0 	 T: memcpy_h2d(0.879136)
F:   330935----T:   361353 	 St: c0291000 Sz: 520192 	 Sm: 0 	 T: memcpy_h2d(20.538826)
F:   361353----T:   362655 	 St: c0100000 Sz: 4096 	 Sm: 0 	 T: memcpy_h2d(0.879136)
F:   362655----T:   423199 	 St: c0101000 Sz: 1044480 	 Sm: 0 	 T: memcpy_h2d(40.880486)
F:   424956----T:   429307 	 St: c0200000 Sz: 65536 	 Sm: 0 	 T: memcpy_h2d(2.937880)
F:   429307----T:   430609 	 St: c0310000 Sz: 4096 	 Sm: 0 	 T: memcpy_h2d(0.879136)
F:   430609----T:   487387 	 St: c0311000 Sz: 978944 	 Sm: 0 	 T: memcpy_h2d(38.337608)
F:   715956----T:   757609 	 	 	 Kl: 2 	 Sm: 0 	 T: kernel_launch(28.124916)
F:   979759----T:  1021391 	 	 	 Kl: 3 	 Sm: 0 	 T: kernel_launch(28.110737)
F:  1243541----T:  1285103 	 	 	 Kl: 4 	 Sm: 0 	 T: kernel_launch(28.063471)
F:  1507253----T:  1548722 	 	 	 Kl: 5 	 Sm: 0 	 T: kernel_launch(28.000675)
F:  1770872----T:  1812461 	 	 	 Kl: 6 	 Sm: 0 	 T: kernel_launch(28.081701)
F:  2034611----T:  2076065 	 	 	 Kl: 7 	 Sm: 0 	 T: kernel_launch(27.990547)
F:  2298215----T:  2337652 	 	 	 Kl: 8 	 Sm: 0 	 T: kernel_launch(26.628630)
F:  2559802----T:  2598796 	 	 	 Kl: 9 	 Sm: 0 	 T: kernel_launch(26.329508)
F:  2820946----T:  2860274 	 	 	 Kl: 10 	 Sm: 0 	 T: kernel_launch(26.555031)
F:  3082424----T:  3121385 	 	 	 Kl: 11 	 Sm: 0 	 T: kernel_launch(26.307224)
F:  3343535----T:  3382999 	 	 	 Kl: 12 	 Sm: 0 	 T: kernel_launch(26.646860)
F:  3605149----T:  3644107 	 	 	 Kl: 13 	 Sm: 0 	 T: kernel_launch(26.305199)
F:  3866257----T:  3905672 	 	 	 Kl: 14 	 Sm: 0 	 T: kernel_launch(26.613775)
F:  4127822----T:  4166733 	 	 	 Kl: 15 	 Sm: 0 	 T: kernel_launch(26.273464)
F:  4388883----T:  4428179 	 	 	 Kl: 16 	 Sm: 0 	 T: kernel_launch(26.533422)
F:  4650329----T:  4689268 	 	 	 Kl: 17 	 Sm: 0 	 T: kernel_launch(26.292370)
F:  4911418----T:  4950543 	 	 	 Kl: 18 	 Sm: 0 	 T: kernel_launch(26.417961)
F:  5172693----T:  5211642 	 	 	 Kl: 19 	 Sm: 0 	 T: kernel_launch(26.299122)
F:  5433792----T:  5472869 	 	 	 Kl: 20 	 Sm: 0 	 T: kernel_launch(26.385550)
F:  5695019----T:  5733937 	 	 	 Kl: 21 	 Sm: 0 	 T: kernel_launch(26.278191)
F:  5956087----T:  5995355 	 	 	 Kl: 22 	 Sm: 0 	 T: kernel_launch(26.514517)
F:  6217505----T:  6256544 	 	 	 Kl: 23 	 Sm: 0 	 T: kernel_launch(26.359892)
F:  6478694----T:  6518046 	 	 	 Kl: 24 	 Sm: 0 	 T: kernel_launch(26.571236)
F:  6740196----T:  6779182 	 	 	 Kl: 25 	 Sm: 0 	 T: kernel_launch(26.324106)
F:  7001332----T:  7040562 	 	 	 Kl: 26 	 Sm: 0 	 T: kernel_launch(26.488859)
F:  7262712----T:  7301483 	 	 	 Kl: 27 	 Sm: 0 	 T: kernel_launch(26.178934)
F:  7523633----T:  7562620 	 	 	 Kl: 28 	 Sm: 0 	 T: kernel_launch(26.324781)
F:  7784770----T:  7823628 	 	 	 Kl: 29 	 Sm: 0 	 T: kernel_launch(26.237677)
F:  8045778----T:  8084985 	 	 	 Kl: 30 	 Sm: 0 	 T: kernel_launch(26.473330)
F:  8307135----T:  8345944 	 	 	 Kl: 31 	 Sm: 0 	 T: kernel_launch(26.204592)
F:  8568094----T:  8607176 	 	 	 Kl: 32 	 Sm: 0 	 T: kernel_launch(26.388926)
F:  8829326----T:  8868120 	 	 	 Kl: 33 	 Sm: 0 	 T: kernel_launch(26.194464)
F:  9090270----T:  9129498 	 	 	 Kl: 34 	 Sm: 0 	 T: kernel_launch(26.487509)
F:  9351648----T:  9390511 	 	 	 Kl: 35 	 Sm: 0 	 T: kernel_launch(26.241053)
F:  9612661----T:  9651662 	 	 	 Kl: 36 	 Sm: 0 	 T: kernel_launch(26.334234)
F:  9873812----T:  9912634 	 	 	 Kl: 37 	 Sm: 0 	 T: kernel_launch(26.213369)
F: 10134784----T: 10174120 	 	 	 Kl: 38 	 Sm: 0 	 T: kernel_launch(26.560432)
F: 10396270----T: 10435184 	 	 	 Kl: 39 	 Sm: 0 	 T: kernel_launch(26.275490)
F: 10657334----T: 10696844 	 	 	 Kl: 40 	 Sm: 0 	 T: kernel_launch(26.677919)
F: 10696844----T: 10698146 	 St: 0 Sz: 4096 	 Sm: 0 	 T: device_sync(0.879136)
F: 10696844----T: 10700964 	 St: 0 Sz: 61440 	 Sm: 0 	 T: device_sync(2.781904)
F: 10702266----T: 10703568 	 St: 0 Sz: 4096 	 Sm: 0 	 T: device_sync(0.879136)
F: 10702266----T: 10706386 	 St: 0 Sz: 61440 	 Sm: 0 	 T: device_sync(2.781904)
F: 10707688----T: 10708990 	 St: 0 Sz: 4096 	 Sm: 0 	 T: device_sync(0.879136)
F: 10707688----T: 10715535 	 St: 0 Sz: 126976 	 Sm: 0 	 T: device_sync(5.298447)
F: 10716837----T: 10718139 	 St: 0 Sz: 4096 	 Sm: 0 	 T: device_sync(0.879136)
F: 10716837----T: 10732198 	 St: 0 Sz: 258048 	 Sm: 0 	 T: device_sync(10.372046)
F: 10733500----T: 10734802 	 St: 0 Sz: 4096 	 Sm: 0 	 T: device_sync(0.879136)
F: 10733500----T: 10763918 	 St: 0 Sz: 520192 	 Sm: 0 	 T: device_sync(20.538826)
F: 10765220----T: 10766522 	 St: 0 Sz: 4096 	 Sm: 0 	 T: device_sync(0.879136)
F: 10765220----T: 10825764 	 St: 0 Sz: 1044480 	 Sm: 0 	 T: device_sync(40.880486)
F: 10827066----T: 10828368 	 St: 0 Sz: 4096 	 Sm: 0 	 T: device_sync(0.879136)
F: 10827066----T: 10831186 	 St: 0 Sz: 61440 	 Sm: 0 	 T: device_sync(2.781904)
F: 10832488----T: 10833790 	 St: 0 Sz: 4096 	 Sm: 0 	 T: device_sync(0.879136)
F: 10832488----T: 10836608 	 St: 0 Sz: 61440 	 Sm: 0 	 T: device_sync(2.781904)
F: 10837910----T: 10839212 	 St: 0 Sz: 4096 	 Sm: 0 	 T: device_sync(0.879136)
F: 10837910----T: 10845757 	 St: 0 Sz: 126976 	 Sm: 0 	 T: device_sync(5.298447)
F: 10847059----T: 10848361 	 St: 0 Sz: 4096 	 Sm: 0 	 T: device_sync(0.879136)
F: 10847059----T: 10862420 	 St: 0 Sz: 258048 	 Sm: 0 	 T: device_sync(10.372046)
F: 10863722----T: 10865024 	 St: 0 Sz: 4096 	 Sm: 0 	 T: device_sync(0.879136)
F: 10863722----T: 10894140 	 St: 0 Sz: 520192 	 Sm: 0 	 T: device_sync(20.538826)
F: 10895442----T: 10896744 	 St: 0 Sz: 4096 	 Sm: 0 	 T: device_sync(0.879136)
F: 10895442----T: 10940922 	 St: 0 Sz: 782336 	 Sm: 0 	 T: device_sync(30.708981)
Tot_prefetch_time: 0(cycle), 0.000000(us)
Tot_kernel_exec_time: 1810844(cycle), 1222.717041(us)
Tot_kernel_exec_time_and_fault_time: 2610584(cycle), 1762.717041(us)
Tot_memcpy_h2d_time: 260339(cycle), 175.785950(us)
Tot_memcpy_d2h_time: 0(cycle), 0.000000(us)
Tot_memcpy_time: 260339(cycle), 175.785950(us)
Tot_devicesync_time: 245380(cycle), 165.685349(us)
Tot_writeback_time: 0(cycle), 0.000000(us)
Tot_memcpy_d2h_sync_wb_time: 245380(cycle), 165.685349(us)
GPGPU-Sim: *** exit detected ***
