

        *** GPGPU-Sim Simulator Version 3.2.2  [build gpgpu-sim_git-commit-3860d9b353b66e89e1a9ca14f6569fffcf247a15_modified_0] ***


GPGPU-Sim PTX: simulation mode 0 (can change with PTX_SIM_MODE_FUNC environment variable:
               1=functional simulation only, 0=detailed performance simulator)
GPGPU-Sim: Configuration options:

-network_mode                           1 # Interconnection network mode
-inter_config_file   config_fermi_islip.icnt # Interconnection network config file
-gpgpu_ptx_use_cuobjdump                    1 # Use cuobjdump to extract ptx and sass from binaries
-gpgpu_experimental_lib_support                    0 # Try to extract code from cuda libraries [Broken because of unknown cudaGetExportTable]
-gpgpu_ptx_convert_to_ptxplus                    0 # Convert SASS (native ISA) to ptxplus and run ptxplus
-gpgpu_ptx_force_max_capability                   20 # Force maximum compute capability
-gpgpu_ptx_inst_debug_to_file                    0 # Dump executed instructions' debug information to file
-gpgpu_ptx_inst_debug_file       inst_debug.txt # Executed instructions' debug output file
-gpgpu_ptx_inst_debug_thread_uid                    1 # Thread UID for executed instructions' debug output
-gpgpu_simd_model                       1 # 1 = post-dominator
-gpgpu_shader_core_pipeline              2048:32 # shader core pipeline config, i.e., {<nthread>:<warpsize>}
-gpgpu_tex_cache:l1  16:128:24,L:R:m:N:L,F:128:4,128:2 # per-shader L1 texture cache  (READ-ONLY) config  {<nsets>:<bsize>:<assoc>,<rep>:<wr>:<alloc>:<wr_alloc>,<mshr>:<N>:<merge>,<mq>:<rf>}
-gpgpu_const_cache:l1 128:64:2,L:R:f:N:L,A:2:64,4 # per-shader L1 constant memory cache  (READ-ONLY) config  {<nsets>:<bsize>:<assoc>,<rep>:<wr>:<alloc>:<wr_alloc>,<mshr>:<N>:<merge>,<mq>} 
-gpgpu_cache:il1     8:128:4,L:R:f:N:L,A:2:48,4 # shader L1 instruction cache config  {<nsets>:<bsize>:<assoc>,<rep>:<wr>:<alloc>:<wr_alloc>,<mshr>:<N>:<merge>,<mq>} 
-gpgpu_cache:dl1     64:128:6,L:L:m:N:H,A:128:8,8 # per-shader L1 data cache config  {<nsets>:<bsize>:<assoc>,<rep>:<wr>:<alloc>:<wr_alloc>,<mshr>:<N>:<merge>,<mq> | none}
-gpgpu_cache:dl1PrefL1                 none # per-shader L1 data cache config  {<nsets>:<bsize>:<assoc>,<rep>:<wr>:<alloc>:<wr_alloc>,<mshr>:<N>:<merge>,<mq> | none}
-gpgpu_cache:dl1PrefShared                 none # per-shader L1 data cache config  {<nsets>:<bsize>:<assoc>,<rep>:<wr>:<alloc>:<wr_alloc>,<mshr>:<N>:<merge>,<mq> | none}
-gmem_skip_L1D                          1 # global memory access skip L1D cache (implements -Xptxas -dlcm=cg, default=no skip)
-gpgpu_perfect_mem                      0 # enable perfect memory mode (no cache miss)
-n_regfile_gating_group                    4 # group of lanes that should be read/written together)
-gpgpu_clock_gated_reg_file                    0 # enable clock gated reg file for power calculations
-gpgpu_clock_gated_lanes                    0 # enable clock gated lanes for power calculations
-gpgpu_shader_registers                65536 # Number of registers per shader core. Limits number of concurrent CTAs. (default 8192)
-gpgpu_shader_cta                      32 # Maximum number of concurrent CTAs in shader (default 8)
-gpgpu_num_cta_barriers                   16 # Maximum number of named barriers per CTA (default 16)
-gpgpu_n_clusters                      28 # number of processing clusters
-gpgpu_n_cores_per_cluster                    1 # number of simd cores per cluster
-gpgpu_n_cluster_ejection_buffer_size                    8 # number of packets in ejection buffer
-gpgpu_n_ldst_response_buffer_size                    2 # number of response packets in ld/st unit ejection buffer
-gpgpu_shmem_size                   16384 # Size of shared memory per shader core (default 16kB)
-gpgpu_shmem_size                   98304 # Size of shared memory per shader core (default 16kB)
-gpgpu_shmem_size_PrefL1                16384 # Size of shared memory per shader core (default 16kB)
-gpgpu_shmem_size_PrefShared                16384 # Size of shared memory per shader core (default 16kB)
-gpgpu_shmem_num_banks                   32 # Number of banks in the shared memory in each shader core (default 16)
-gpgpu_shmem_limited_broadcast                    0 # Limit shared memory to do one broadcast per cycle (default on)
-gpgpu_shmem_warp_parts                    1 # Number of portions a warp is divided into for shared memory bank conflict check 
-gpgpu_warpdistro_shader                   -1 # Specify which shader core to collect the warp size distribution from
-gpgpu_warp_issue_shader                    0 # Specify which shader core to collect the warp issue distribution from
-gpgpu_local_mem_map                    1 # Mapping from local memory space address to simulated GPU physical address space (default = enabled)
-gpgpu_num_reg_banks                   32 # Number of register banks (default = 8)
-gpgpu_reg_bank_use_warp_id                    0 # Use warp ID in mapping registers to banks (default = off)
-gpgpu_operand_collector_num_units_sp                   20 # number of collector units (default = 4)
-gpgpu_operand_collector_num_units_sfu                    4 # number of collector units (default = 4)
-gpgpu_operand_collector_num_units_mem                    8 # number of collector units (default = 2)
-gpgpu_operand_collector_num_units_gen                    0 # number of collector units (default = 0)
-gpgpu_operand_collector_num_in_ports_sp                    4 # number of collector unit in ports (default = 1)
-gpgpu_operand_collector_num_in_ports_sfu                    1 # number of collector unit in ports (default = 1)
-gpgpu_operand_collector_num_in_ports_mem                    1 # number of collector unit in ports (default = 1)
-gpgpu_operand_collector_num_in_ports_gen                    0 # number of collector unit in ports (default = 0)
-gpgpu_operand_collector_num_out_ports_sp                    4 # number of collector unit in ports (default = 1)
-gpgpu_operand_collector_num_out_ports_sfu                    1 # number of collector unit in ports (default = 1)
-gpgpu_operand_collector_num_out_ports_mem                    1 # number of collector unit in ports (default = 1)
-gpgpu_operand_collector_num_out_ports_gen                    0 # number of collector unit in ports (default = 0)
-gpgpu_coalesce_arch                   13 # Coalescing arch (default = 13, anything else is off for now)
-gpgpu_num_sched_per_core                    2 # Number of warp schedulers per core
-gpgpu_max_insn_issue_per_warp                    2 # Max number of instructions that can be issued per warp in one cycle by scheduler
-gpgpu_simt_core_sim_order                    1 # Select the simulation order of cores in a cluster (0=Fix, 1=Round-Robin)
-gpgpu_pipeline_widths        4,1,1,4,1,1,6 # Pipeline widths ID_OC_SP,ID_OC_SFU,ID_OC_MEM,OC_EX_SP,OC_EX_SFU,OC_EX_MEM,EX_WB
-gpgpu_num_sp_units                     4 # Number of SP units (default=1)
-gpgpu_num_sfu_units                    1 # Number of SF units (default=1)
-gpgpu_num_mem_units                    1 # Number if ldst units (default=1) WARNING: not hooked up to anything
-gpgpu_scheduler                      gto # Scheduler configuration: < lrr | gto | two_level_active > If two_level_active:<num_active_warps>:<inner_prioritization>:<outer_prioritization>For complete list of prioritization values see shader.h enum scheduler_prioritization_typeDefault: gto
-gpgpu_concurrent_kernel_sm                    0 # Support concurrent kernels on a SM (default = disabled)
-tlb_size                            4096 # Number of tlb entries per SM.
-gpgpu_dram_scheduler                    1 # 0 = fifo, 1 = FR-FCFS (defaul)
-gpgpu_dram_partition_queues              8:8:8:8 # i2$:$2d:d2$:$2i
-l2_ideal                               0 # Use a ideal L2 cache that always hit
-gpgpu_cache:dl2     64:128:16,L:B:m:W:L,A:1024:1024,4:0,32 # unified banked L2 data cache config  {<nsets>:<bsize>:<assoc>,<rep>:<wr>:<alloc>:<wr_alloc>,<mshr>:<N>:<merge>,<mq>}
-gpgpu_cache:dl2_texture_only                    0 # L2 cache used for texture only
-gpgpu_n_mem                           11 # number of memory modules (e.g. memory controllers) in gpu
-gpgpu_n_sub_partition_per_mchannel                    2 # number of memory subpartition in each memory module
-gpgpu_n_mem_per_ctrlr                    1 # number of memory chips per memory controller
-gpgpu_memlatency_stat                   14 # track and display latency statistics 0x2 enables MC, 0x4 enables queue logs
-gpgpu_frfcfs_dram_sched_queue_size                   64 # 0 = unlimited (default); # entries per chip
-gpgpu_dram_return_queue_size                  116 # 0 = unlimited (default); # entries per chip
-gpgpu_dram_buswidth                    4 # default = 4 bytes (8 bytes per cycle at DDR)
-gpgpu_dram_burst_length                    8 # Burst length of each DRAM request (default = 4 data bus cycle)
-dram_data_command_freq_ratio                    4 # Frequency ratio between DRAM data bus and command bus (default = 2 times, i.e. DDR)
-gpgpu_dram_timing_opt nbk=16:CCD=2:RRD=6:RCD=12:RAS=28:RP=12:RC=40: CL=12:WL=4:CDLR=5:WR=12:nbkgrp=1:CCDL=0:RTPL=0 # DRAM timing parameters = {nbk:tCCD:tRRD:tRCD:tRAS:tRP:tRC:CL:WL:tCDLR:tWR:nbkgrp:tCCDL:tRTPL}
-rop_latency                          120 # ROP queue latency (default 85)
-dram_latency                         100 # DRAM latency (default 30)
-gpgpu_mem_addr_mapping dramid@8;00000000.00000000.00000000.00000000.0000RRRR.RRRRRRRR.RBBBCCCC.BCCSSSSS # mapping memory address to dram model {dramid@<start bit>;<memory address map>}
-gpgpu_mem_addr_test                    0 # run sweep test to check address mapping for aliased address
-gpgpu_mem_address_mask                    1 # 0 = old addressing mask, 1 = new addressing mask, 2 = new add. mask + flipped bank sel and chip sel bits
-gpuwattch_xml_file  gpuwattch_geforcegtx1080ti.xml # GPUWattch XML file
-power_simulation_enabled                    1 # Turn on power simulator (1=On, 0=Off)
-power_per_cycle_dump                    0 # Dump detailed power output each cycle
-power_trace_enabled                    0 # produce a file for the power trace (1=On, 0=Off)
-power_trace_zlevel                     6 # Compression level of the power trace output log (0=no comp, 9=highest)
-steady_power_levels_enabled                    0 # produce a file for the steady power levels (1=On, 0=Off)
-steady_state_definition                  8:4 # allowed deviation:number of samples
-gpgpu_max_cycle                        0 # terminates gpu simulation early (0 = no limit)
-gpgpu_max_insn                         0 # terminates gpu simulation early (0 = no limit)
-gpgpu_max_cta                          0 # terminates gpu simulation early (0 = no limit)
-gpgpu_runtime_stat                   500 # display runtime statistics such as dram utilization {<freq>:<flag>}
-liveness_message_freq                    1 # Minimum number of seconds between simulation liveness messages (0 = always print)
-gpgpu_flush_l1_cache                    0 # Flush L1 cache at the end of each kernel call
-gpgpu_flush_l2_cache                    0 # Flush L2 cache at the end of each kernel call
-gpgpu_deadlock_detect                    0 # Stop the simulation at deadlock (1=on (default), 0=off)
-gpgpu_ptx_instruction_classification                    0 # if enabled will classify ptx instruction types per kernel (Max 255 kernels now)
-gpgpu_ptx_sim_mode                     0 # Select between Performance (default) or Functional simulation (1)
-gpgpu_clock_domains 1481.0:2962.0:1481.0:2750.0 # Clock Domain Frequencies in MhZ {<Core Clock>:<ICNT Clock>:<L2 Clock>:<DRAM Clock>}
-gpgpu_max_concurrent_kernel                    8 # maximum kernels that can run concurrently on GPU
-gpgpu_cflog_interval                    0 # Interval between each snapshot in control flow logger
-visualizer_enabled                     0 # Turn on visualizer output (1=On, 0=Off)
-visualizer_outputfile                 NULL # Specifies the output log file for visualizer
-visualizer_zlevel                      6 # Compression level of the visualizer output log (0=no comp, 9=highest)
-trace_enabled                          0 # Turn on traces
-trace_components                    none # comma seperated list of traces to enable. Complete list found in trace_streams.tup. Default none
-trace_sampling_core                    0 # The core which is printed using CORE_DPRINTF. Default 0
-trace_sampling_memory_partition                   -1 # The memory partition which is printed using MEMPART_DPRINTF. Default -1 (i.e. all)
-gddr_size                            1GB # Size of GDDR in MB/GB.(GLOBAL_HEAP_START, GLOBAL_HEAP_START + gddr_size) would be used for unmanged memory, (GLOBAL_HEAP_START + gddr_size, GLOBAL_HEAP_START + gddr_size*2) would be used for managed memory. 
-page_table_walk_latency                  100 # Average page table walk latency (in core cycle).
-eviction_policy                        0 # Select page eviction policy
-reserve_accessed_page_percent                    0 # Percentage of accessed pages reserved from eviction in hope that they will be accessed in next iteration.
-percentage_of_free_page_buffer                    0 # Percentage of free page buffer to trigger the page eviction.
-page_size                            4KB # GDDR page size, only 4KB/2MB avaliable.
-pcie_bandwith                   16.0GB/s # PCI-e bandwith per direction, in GB/s.
-enable_nvlink                          0 # Enable nvlink 2.0, 150.0GB/s
-enable_rdma                            0 # Enable remote direct memory access
-migrate_threshold                     10 # Access counter threshold for migrating the page from cpu to gpu
-sim_prof_enable                        1 # Enable gpgpu-sim profiler
-hardware_prefetch                      3 # Select gpgpu-sim hardware prefetcher
-hwprefetch_oversub                     0 # Select gpgpu-sim hardware prefetcher under over-subscription
-page_fault_latency                 66645 # Average fault latency (in core cycle).
-enable_accurate_simulation                    0 # Enable page fault functional simulation.
-enable_ptx_file_line_stats                    1 # Turn on PTX source line statistic profiling. (1 = On)
-ptx_line_stats_filename gpgpu_inst_stats.txt # Output file for PTX source line statistics.
-gpgpu_kernel_launch_latency               222150 # Kernel launch latency in cycles. Default: 0
-gpgpu_cdp_enabled                      0 # Turn on CDP
-save_embedded_ptx                      0 # saves ptx files embedded in binary as <n>.ptx
-keep                                   0 # keep intermediate files created by GPGPU-Sim when interfacing with external programs
-gpgpu_ptx_save_converted_ptxplus                    0 # Saved converted ptxplus to a file
-ptx_opcode_latency_int         4,13,4,5,145 # Opcode latencies for integers <ADD,MAX,MUL,MAD,DIV>Default 1,1,19,25,145
-ptx_opcode_latency_fp          4,13,4,5,39 # Opcode latencies for single precision floating points <ADD,MAX,MUL,MAD,DIV>Default 1,1,1,1,30
-ptx_opcode_latency_dp         8,19,8,8,330 # Opcode latencies for double precision floating points <ADD,MAX,MUL,MAD,DIV>Default 8,8,8,8,335
-ptx_opcode_initiation_int            1,2,2,2,8 # Opcode initiation intervals for integers <ADD,MAX,MUL,MAD,DIV>Default 1,1,4,4,32
-ptx_opcode_initiation_fp            1,2,1,1,4 # Opcode initiation intervals for single precision floating points <ADD,MAX,MUL,MAD,DIV>Default 1,1,1,1,5
-ptx_opcode_initiation_dp          1,2,1,1,130 # Opcode initiation intervals for double precision floating points <ADD,MAX,MUL,MAD,DIV>Default 8,8,8,8,130
-cdp_latency         7200,8000,100,12000,1600 # CDP API latency <cudaStreamCreateWithFlags, cudaGetParameterBufferV2_init_perWarp, cudaGetParameterBufferV2_perKernel, cudaLaunchDeviceV2_init_perWarp, cudaLaunchDevicV2_perKernel>Default 7200,8000,100,12000,1600
DRAM Timing Options:
nbk                                    16 # number of banks
CCD                                     2 # column to column delay
RRD                                     6 # minimal delay between activation of rows in different banks
RCD                                    12 # row to column delay
RAS                                    28 # time needed to activate row
RP                                     12 # time needed to precharge (deactivate) row
RC                                     40 # row cycle time
CDLR                                    5 # switching from write to read (changes tWTR)
WR                                     12 # last data-in to row precharge
CL                                     12 # CAS latency
WL                                      4 # Write latency
nbkgrp                                  1 # number of bank groups
CCDL                                    0 # column to column delay between accesses to different bank groups
RTPL                                    0 # read to precharge delay between accesses to different bank groups
Total number of memory sub partition = 22
addr_dec_mask[CHIP]  = 0000000000000000 	high:64 low:0
addr_dec_mask[BK]    = 0000000000007080 	high:15 low:7
addr_dec_mask[ROW]   = 000000000fff8000 	high:28 low:15
addr_dec_mask[COL]   = 0000000000000f7f 	high:12 low:0
addr_dec_mask[BURST] = 000000000000001f 	high:5 low:0
sub_partition_id_mask = 0000000000000080
GPGPU-Sim uArch: clock freqs: 1481000000.000000:2962000000.000000:1481000000.000000:2750000000.000000
GPGPU-Sim uArch: clock periods: 0.00000000067521944632:0.00000000033760972316:0.00000000067521944632:0.00000000036363636364
*** Initializing Memory Statistics ***
GPGPU-Sim uArch: interconnect node map (shaderID+MemID to icntID)
GPGPU-Sim uArch: Memory nodes ID start from index: 28
GPGPU-Sim uArch:    0   1   2   3   4   5   6
GPGPU-Sim uArch:    7   8   9  10  11  12  13
GPGPU-Sim uArch:   14  15  16  17  18  19  20
GPGPU-Sim uArch:   21  22  23  24  25  26  27
GPGPU-Sim uArch:   28  29  30  31  32  33  34
GPGPU-Sim uArch:   35  36  37  38  39  40  41
GPGPU-Sim uArch:   42  43  44  45  46  47  48
GPGPU-Sim uArch:   49
GPGPU-Sim uArch: interconnect node reverse map (icntID to shaderID+MemID)
GPGPU-Sim uArch: Memory nodes start from ID: 28
GPGPU-Sim uArch:    0   1   2   3   4   5   6
GPGPU-Sim uArch:    7   8   9  10  11  12  13
GPGPU-Sim uArch:   14  15  16  17  18  19  20
GPGPU-Sim uArch:   21  22  23  24  25  26  27
GPGPU-Sim uArch:   28  29  30  31  32  33  34
GPGPU-Sim uArch:   35  36  37  38  39  40  41
GPGPU-Sim uArch:   42  43  44  45  46  47  48
GPGPU-Sim uArch:   49
391df93d5e5b261dc9686569b293934a  /home/gpuser/Desktop/gpgpu-sim_UVMSmart/benchmarks/Managed/backprop/backprop
GPGPU-Sim uArch: performance model initialization complete.
GPGPU-Sim PTX: __cudaRegisterFatBinary, fat_cubin_handle = 1, filename=default
self exe links to: /home/gpuser/Desktop/gpgpu-sim_UVMSmart/benchmarks/Managed/backprop/backprop
Running md5sum using "md5sum /home/gpuser/Desktop/gpgpu-sim_UVMSmart/benchmarks/Managed/backprop/backprop "
Parsing file _cuobjdump_complete_output_0LVugH
######### cuobjdump parser ########
## Adding new section ELF
Adding arch: sm_20
Adding identifier: default
## Adding new section ELF
Adding arch: sm_20
Adding identifier: default
## Adding new section PTX
Adding ptx filename: _cuobjdump_1.ptx
Adding arch: sm_20
Adding identifier: default
Done parsing!!!
GPGPU-Sim PTX: __cudaRegisterFunction _Z24bpnn_adjust_weights_cudaPfiS_iS_S_ : hostFun 0x0x402d5b, fat_cubin_handle = 1
GPGPU-Sim PTX: allocating shared region for "_Z22bpnn_layerforward_CUDAPfS_S_S_ii$__cuda_local_var_17900_34_non_const_input_node" from 0x0 to 0x40 (shared memory space)
GPGPU-Sim PTX: allocating shared region for "_Z22bpnn_layerforward_CUDAPfS_S_S_ii$__cuda_local_var_17901_34_non_const_weight_matrix" from 0x80 to 0x480 (shared memory space)
GPGPU-Sim PTX: instruction assembly for function '_Z22bpnn_layerforward_CUDAPfS_S_S_ii'...   done.
GPGPU-Sim PTX: finding reconvergence points for '_Z22bpnn_layerforward_CUDAPfS_S_S_ii'...
GPGPU-Sim PTX: Finding dominators for '_Z22bpnn_layerforward_CUDAPfS_S_S_ii'...
GPGPU-Sim PTX: Finding immediate dominators for '_Z22bpnn_layerforward_CUDAPfS_S_S_ii'...
GPGPU-Sim PTX: Finding postdominators for '_Z22bpnn_layerforward_CUDAPfS_S_S_ii'...
GPGPU-Sim PTX: Finding immediate postdominators for '_Z22bpnn_layerforward_CUDAPfS_S_S_ii'...
GPGPU-Sim PTX: pre-decoding instructions for '_Z22bpnn_layerforward_CUDAPfS_S_S_ii'...
GPGPU-Sim PTX: reconvergence points for _Z22bpnn_layerforward_CUDAPfS_S_S_ii...
GPGPU-Sim PTX:  1 (potential) branch divergence @  PC=0x068 (_1.ptx:47) @%p2 bra BB0_2;
GPGPU-Sim PTX:    immediate post dominator      @  PC=0x0a0 (_1.ptx:57) cvta.to.global.u64 %rd3, %rd8;
GPGPU-Sim PTX:  2 (potential) branch divergence @  PC=0x168 (_1.ptx:82) @%p3 bra BB0_7;
GPGPU-Sim PTX:    immediate post dominator      @  PC=0x250 (_1.ptx:119) setp.eq.s32%p1, %r3, 0;
GPGPU-Sim PTX:  3 (potential) branch divergence @  PC=0x1c8 (_1.ptx:97) @%p4 bra BB0_6;
GPGPU-Sim PTX:    immediate post dominator      @  PC=0x228 (_1.ptx:112) bar.sync 0;
GPGPU-Sim PTX:  4 (potential) branch divergence @  PC=0x248 (_1.ptx:116) @%p5 bra BB0_4;
GPGPU-Sim PTX:    immediate post dominator      @  PC=0x250 (_1.ptx:119) setp.eq.s32%p1, %r3, 0;
GPGPU-Sim PTX:  5 (potential) branch divergence @  PC=0x270 (_1.ptx:123) @!%p1 bra BB0_9;
GPGPU-Sim PTX:    immediate post dominator      @  PC=0x2c8 (_1.ptx:138) ret;
GPGPU-Sim PTX:  6 (potential) branch divergence @  PC=0x278 (_1.ptx:124) bra.uni BB0_8;
GPGPU-Sim PTX:    immediate post dominator      @  PC=0x280 (_1.ptx:127) cvt.u32.u64%r20, %rd1;
GPGPU-Sim PTX: ... end of reconvergence points for _Z22bpnn_layerforward_CUDAPfS_S_S_ii
GPGPU-Sim PTX: ... done pre-decoding instructions for '_Z22bpnn_layerforward_CUDAPfS_S_S_ii'.
GPGPU-Sim PTX: instruction assembly for function '_Z24bpnn_adjust_weights_cudaPfiS_iS_S_'...   done.
GPGPU-Sim PTX: finding reconvergence points for '_Z24bpnn_adjust_weights_cudaPfiS_iS_S_'...
GPGPU-Sim PTX: Finding dominators for '_Z24bpnn_adjust_weights_cudaPfiS_iS_S_'...
GPGPU-Sim PTX: Finding immediate dominators for '_Z24bpnn_adjust_weights_cudaPfiS_iS_S_'...
GPGPU-Sim PTX: Finding postdominators for '_Z24bpnn_adjust_weights_cudaPfiS_iS_S_'...
GPGPU-Sim PTX: Finding immediate postdominators for '_Z24bpnn_adjust_weights_cudaPfiS_iS_S_'...
GPGPU-Sim PTX: pre-decoding instructions for '_Z24bpnn_adjust_weights_cudaPfiS_iS_S_'...
GPGPU-Sim PTX: reconvergence points for _Z24bpnn_adjust_weights_cudaPfiS_iS_S_...
GPGPU-Sim PTX:  1 (potential) branch divergence @  PC=0x470 (_1.ptx:210) @%p1 bra BB1_2;
GPGPU-Sim PTX:    immediate post dominator      @  PC=0x530 (_1.ptx:237) ret;
GPGPU-Sim PTX: ... end of reconvergence points for _Z24bpnn_adjust_weights_cudaPfiS_iS_S_
GPGPU-Sim PTX: ... done pre-decoding instructions for '_Z24bpnn_adjust_weights_cudaPfiS_iS_S_'.
GPGPU-Sim PTX: finished parsing EMBEDDED .ptx file _1.ptx
Adding _cuobjdump_1.ptx with cubin handle 1
GPGPU-Sim PTX: extracting embedded .ptx to temporary file "_ptx_MEzzwp"
Running: cat _ptx_MEzzwp | sed 's/.version 1.5/.version 1.4/' | sed 's/, texmode_independent//' | sed 's/\(\.extern \.const\[1\] .b8 \w\+\)\[\]/\1\[1\]/' | sed 's/const\[.\]/const\[0\]/g' > _ptx2_o9fFM7
GPGPU-Sim PTX: generating ptxinfo using "$CUDA_INSTALL_PATH/bin/ptxas --gpu-name=sm_20 -v _ptx2_o9fFM7 --output-file  /dev/null 2> _ptx_MEzzwpinfo"
GPGPU-Sim PTX: Kernel '_Z24bpnn_adjust_weights_cudaPfiS_iS_S_' : regs=22, lmem=0, smem=0, cmem=80
GPGPU-Sim PTX: Kernel '_Z22bpnn_layerforward_CUDAPfS_S_S_ii' : regs=11, lmem=0, smem=1088, cmem=72
GPGPU-Sim PTX: removing ptxinfo using "rm -f _ptx_MEzzwp _ptx2_o9fFM7 _ptx_MEzzwpinfo"
GPGPU-Sim PTX: loading globals with explicit initializers... 
GPGPU-Sim PTX: finished loading globals (0 bytes total).
GPGPU-Sim PTX: loading constants with explicit initializers...  done.
GPGPU-Sim PTX: __cudaRegisterFunction _Z22bpnn_layerforward_CUDAPfS_S_S_ii : hostFun 0x0x402c0a, fat_cubin_handle = 1
Random number generator seed: 7
cudaMallocManaged called
cudaMallocManaged called
cudaMallocManaged called
cudaMallocManaged called
cudaMallocManaged called
cudaMallocManaged called
cudaMallocManaged called
cudaMallocManaged called
cudaMallocManaged called
cudaMallocManaged called
cudaMallocManaged called
Input layer size : 18000
Starting training kernel
Performing GPU computation

GPGPU-Sim PTX: cudaLaunch for 0x0x402c0a (mode=performance simulation) on stream 0
GPGPU-Sim PTX: pushing kernel '_Z22bpnn_layerforward_CUDAPfS_S_S_ii' to stream 0, gridDim= (1,1125,1) blockDim = (16,16,1) 
GPGPU-Sim uArch: Shader 1 bind to kernel 1 '_Z22bpnn_layerforward_CUDAPfS_S_S_ii'
GPGPU-Sim uArch: CTA/core = 8, limited by: threads
GPGPU-Sim uArch: Shader 2 bind to kernel 1 '_Z22bpnn_layerforward_CUDAPfS_S_S_ii'
GPGPU-Sim uArch: Shader 3 bind to kernel 1 '_Z22bpnn_layerforward_CUDAPfS_S_S_ii'
GPGPU-Sim uArch: Shader 4 bind to kernel 1 '_Z22bpnn_layerforward_CUDAPfS_S_S_ii'
GPGPU-Sim uArch: Shader 5 bind to kernel 1 '_Z22bpnn_layerforward_CUDAPfS_S_S_ii'
GPGPU-Sim uArch: Shader 6 bind to kernel 1 '_Z22bpnn_layerforward_CUDAPfS_S_S_ii'
GPGPU-Sim uArch: Shader 7 bind to kernel 1 '_Z22bpnn_layerforward_CUDAPfS_S_S_ii'
GPGPU-Sim uArch: Shader 8 bind to kernel 1 '_Z22bpnn_layerforward_CUDAPfS_S_S_ii'
GPGPU-Sim uArch: Shader 9 bind to kernel 1 '_Z22bpnn_layerforward_CUDAPfS_S_S_ii'
GPGPU-Sim uArch: Shader 10 bind to kernel 1 '_Z22bpnn_layerforward_CUDAPfS_S_S_ii'
GPGPU-Sim uArch: Shader 11 bind to kernel 1 '_Z22bpnn_layerforward_CUDAPfS_S_S_ii'
GPGPU-Sim uArch: Shader 12 bind to kernel 1 '_Z22bpnn_layerforward_CUDAPfS_S_S_ii'
GPGPU-Sim uArch: Shader 13 bind to kernel 1 '_Z22bpnn_layerforward_CUDAPfS_S_S_ii'
GPGPU-Sim uArch: Shader 14 bind to kernel 1 '_Z22bpnn_layerforward_CUDAPfS_S_S_ii'
GPGPU-Sim uArch: Shader 15 bind to kernel 1 '_Z22bpnn_layerforward_CUDAPfS_S_S_ii'
GPGPU-Sim uArch: Shader 16 bind to kernel 1 '_Z22bpnn_layerforward_CUDAPfS_S_S_ii'
GPGPU-Sim uArch: Shader 17 bind to kernel 1 '_Z22bpnn_layerforward_CUDAPfS_S_S_ii'
GPGPU-Sim uArch: Shader 18 bind to kernel 1 '_Z22bpnn_layerforward_CUDAPfS_S_S_ii'
GPGPU-Sim uArch: Shader 19 bind to kernel 1 '_Z22bpnn_layerforward_CUDAPfS_S_S_ii'
GPGPU-Sim uArch: Shader 20 bind to kernel 1 '_Z22bpnn_layerforward_CUDAPfS_S_S_ii'
GPGPU-Sim uArch: Shader 21 bind to kernel 1 '_Z22bpnn_layerforward_CUDAPfS_S_S_ii'
GPGPU-Sim uArch: Shader 22 bind to kernel 1 '_Z22bpnn_layerforward_CUDAPfS_S_S_ii'
GPGPU-Sim uArch: Shader 23 bind to kernel 1 '_Z22bpnn_layerforward_CUDAPfS_S_S_ii'
GPGPU-Sim uArch: Shader 24 bind to kernel 1 '_Z22bpnn_layerforward_CUDAPfS_S_S_ii'
GPGPU-Sim uArch: Shader 25 bind to kernel 1 '_Z22bpnn_layerforward_CUDAPfS_S_S_ii'
GPGPU-Sim uArch: Shader 26 bind to kernel 1 '_Z22bpnn_layerforward_CUDAPfS_S_S_ii'
GPGPU-Sim uArch: Shader 27 bind to kernel 1 '_Z22bpnn_layerforward_CUDAPfS_S_S_ii'
GPGPU-Sim uArch: Shader 0 bind to kernel 1 '_Z22bpnn_layerforward_CUDAPfS_S_S_ii'
Destroy streams for kernel 1: size 0
kernel_name = _Z22bpnn_layerforward_CUDAPfS_S_S_ii 
kernel_launch_uid = 1 
gpu_sim_cycle = 1434030
gpu_sim_insn = 30888000
gpu_ipc =      21.5393
gpu_tot_sim_cycle = 1656180
gpu_tot_sim_insn = 30888000
gpu_tot_ipc =      18.6501
gpu_tot_issued_cta = 1125
max_total_param_size = 0
gpu_stall_dramfull = 0
gpu_stall_icnt2sh    = 13183
partiton_reqs_in_parallel = 31548660
partiton_reqs_in_parallel_total    = 0
partiton_level_parallism =      22.0000
partiton_level_parallism_total  =      19.0491
partiton_reqs_in_parallel_util = 31548660
partiton_reqs_in_parallel_util_total    = 0
gpu_sim_cycle_parition_util = 1434030
gpu_tot_sim_cycle_parition_util    = 0
partiton_level_parallism_util =      22.0000
partiton_level_parallism_util_total  =      22.0000
partiton_replys_in_parallel = 54758
partiton_replys_in_parallel_total    = 0
L2_BW  =       3.6193 GB/Sec
L2_BW_total  =       3.1338 GB/Sec
gpu_total_sim_rate=5755

========= Core cache stats =========
L1I_cache:
	L1I_total_cache_accesses = 642375
	L1I_total_cache_misses = 3249
	L1I_total_cache_miss_rate = 0.0051
	L1I_total_cache_pending_hits = 0
	L1I_total_cache_reservation_fails = 6846
L1D_cache:
	L1D_cache_core[0]: Access = 0, Miss = 0, Miss_rate = -nan, Pending_hits = 0, Reservation_fails = 0
	L1D_cache_core[1]: Access = 0, Miss = 0, Miss_rate = -nan, Pending_hits = 0, Reservation_fails = 0
	L1D_cache_core[2]: Access = 0, Miss = 0, Miss_rate = -nan, Pending_hits = 0, Reservation_fails = 0
	L1D_cache_core[3]: Access = 0, Miss = 0, Miss_rate = -nan, Pending_hits = 0, Reservation_fails = 0
	L1D_cache_core[4]: Access = 0, Miss = 0, Miss_rate = -nan, Pending_hits = 0, Reservation_fails = 0
	L1D_cache_core[5]: Access = 0, Miss = 0, Miss_rate = -nan, Pending_hits = 0, Reservation_fails = 0
	L1D_cache_core[6]: Access = 0, Miss = 0, Miss_rate = -nan, Pending_hits = 0, Reservation_fails = 0
	L1D_cache_core[7]: Access = 0, Miss = 0, Miss_rate = -nan, Pending_hits = 0, Reservation_fails = 0
	L1D_cache_core[8]: Access = 0, Miss = 0, Miss_rate = -nan, Pending_hits = 0, Reservation_fails = 0
	L1D_cache_core[9]: Access = 0, Miss = 0, Miss_rate = -nan, Pending_hits = 0, Reservation_fails = 0
	L1D_cache_core[10]: Access = 0, Miss = 0, Miss_rate = -nan, Pending_hits = 0, Reservation_fails = 0
	L1D_cache_core[11]: Access = 0, Miss = 0, Miss_rate = -nan, Pending_hits = 0, Reservation_fails = 0
	L1D_cache_core[12]: Access = 0, Miss = 0, Miss_rate = -nan, Pending_hits = 0, Reservation_fails = 0
	L1D_cache_core[13]: Access = 0, Miss = 0, Miss_rate = -nan, Pending_hits = 0, Reservation_fails = 0
	L1D_cache_core[14]: Access = 0, Miss = 0, Miss_rate = -nan, Pending_hits = 0, Reservation_fails = 0
	L1D_cache_core[15]: Access = 0, Miss = 0, Miss_rate = -nan, Pending_hits = 0, Reservation_fails = 0
	L1D_cache_core[16]: Access = 0, Miss = 0, Miss_rate = -nan, Pending_hits = 0, Reservation_fails = 0
	L1D_cache_core[17]: Access = 0, Miss = 0, Miss_rate = -nan, Pending_hits = 0, Reservation_fails = 0
	L1D_cache_core[18]: Access = 0, Miss = 0, Miss_rate = -nan, Pending_hits = 0, Reservation_fails = 0
	L1D_cache_core[19]: Access = 0, Miss = 0, Miss_rate = -nan, Pending_hits = 0, Reservation_fails = 0
	L1D_cache_core[20]: Access = 0, Miss = 0, Miss_rate = -nan, Pending_hits = 0, Reservation_fails = 0
	L1D_cache_core[21]: Access = 0, Miss = 0, Miss_rate = -nan, Pending_hits = 0, Reservation_fails = 0
	L1D_cache_core[22]: Access = 0, Miss = 0, Miss_rate = -nan, Pending_hits = 0, Reservation_fails = 0
	L1D_cache_core[23]: Access = 0, Miss = 0, Miss_rate = -nan, Pending_hits = 0, Reservation_fails = 0
	L1D_cache_core[24]: Access = 0, Miss = 0, Miss_rate = -nan, Pending_hits = 0, Reservation_fails = 0
	L1D_cache_core[25]: Access = 0, Miss = 0, Miss_rate = -nan, Pending_hits = 0, Reservation_fails = 0
	L1D_cache_core[26]: Access = 0, Miss = 0, Miss_rate = -nan, Pending_hits = 0, Reservation_fails = 0
	L1D_cache_core[27]: Access = 0, Miss = 0, Miss_rate = -nan, Pending_hits = 0, Reservation_fails = 0
	L1D_total_cache_accesses = 0
	L1D_total_cache_misses = 0
	L1D_total_cache_pending_hits = 0
	L1D_total_cache_reservation_fails = 0
	L1D_cache_data_port_util = 0.000
	L1D_cache_fill_port_util = 0.000
L1C_cache:
	L1C_total_cache_accesses = 36000
	L1C_total_cache_misses = 1792
	L1C_total_cache_miss_rate = 0.0498
	L1C_total_cache_pending_hits = 0
	L1C_total_cache_reservation_fails = 4886
L1T_cache:
	L1T_total_cache_accesses = 0
	L1T_total_cache_misses = 0
	L1T_total_cache_pending_hits = 0
	L1T_total_cache_reservation_fails = 0

Total_core_cache_stats:
	Total_core_cache_stats_breakdown[GLOBAL_ACC_R][HIT] = 0
	Total_core_cache_stats_breakdown[GLOBAL_ACC_R][HIT_RESERVED] = 0
	Total_core_cache_stats_breakdown[GLOBAL_ACC_R][MISS] = 0
	Total_core_cache_stats_breakdown[GLOBAL_ACC_R][RESERVATION_FAIL] = 0
	Total_core_cache_stats_breakdown[LOCAL_ACC_R][HIT] = 0
	Total_core_cache_stats_breakdown[LOCAL_ACC_R][HIT_RESERVED] = 0
	Total_core_cache_stats_breakdown[LOCAL_ACC_R][MISS] = 0
	Total_core_cache_stats_breakdown[LOCAL_ACC_R][RESERVATION_FAIL] = 0
	Total_core_cache_stats_breakdown[CONST_ACC_R][HIT] = 34208
	Total_core_cache_stats_breakdown[CONST_ACC_R][HIT_RESERVED] = 0
	Total_core_cache_stats_breakdown[CONST_ACC_R][MISS] = 1792
	Total_core_cache_stats_breakdown[CONST_ACC_R][RESERVATION_FAIL] = 4886
	Total_core_cache_stats_breakdown[TEXTURE_ACC_R][HIT] = 0
	Total_core_cache_stats_breakdown[TEXTURE_ACC_R][HIT_RESERVED] = 0
	Total_core_cache_stats_breakdown[TEXTURE_ACC_R][MISS] = 0
	Total_core_cache_stats_breakdown[TEXTURE_ACC_R][RESERVATION_FAIL] = 0
	Total_core_cache_stats_breakdown[GLOBAL_ACC_W][HIT] = 0
	Total_core_cache_stats_breakdown[GLOBAL_ACC_W][HIT_RESERVED] = 0
	Total_core_cache_stats_breakdown[GLOBAL_ACC_W][MISS] = 0
	Total_core_cache_stats_breakdown[GLOBAL_ACC_W][RESERVATION_FAIL] = 0
	Total_core_cache_stats_breakdown[LOCAL_ACC_W][HIT] = 0
	Total_core_cache_stats_breakdown[LOCAL_ACC_W][HIT_RESERVED] = 0
	Total_core_cache_stats_breakdown[LOCAL_ACC_W][MISS] = 0
	Total_core_cache_stats_breakdown[LOCAL_ACC_W][RESERVATION_FAIL] = 0
	Total_core_cache_stats_breakdown[L1_WRBK_ACC][HIT] = 0
	Total_core_cache_stats_breakdown[L1_WRBK_ACC][HIT_RESERVED] = 0
	Total_core_cache_stats_breakdown[L1_WRBK_ACC][MISS] = 0
	Total_core_cache_stats_breakdown[L1_WRBK_ACC][RESERVATION_FAIL] = 0
	Total_core_cache_stats_breakdown[L2_WRBK_ACC][HIT] = 0
	Total_core_cache_stats_breakdown[L2_WRBK_ACC][HIT_RESERVED] = 0
	Total_core_cache_stats_breakdown[L2_WRBK_ACC][MISS] = 0
	Total_core_cache_stats_breakdown[L2_WRBK_ACC][RESERVATION_FAIL] = 0
	Total_core_cache_stats_breakdown[INST_ACC_R][HIT] = 639126
	Total_core_cache_stats_breakdown[INST_ACC_R][HIT_RESERVED] = 0
	Total_core_cache_stats_breakdown[INST_ACC_R][MISS] = 3249
	Total_core_cache_stats_breakdown[INST_ACC_R][RESERVATION_FAIL] = 6846
	Total_core_cache_stats_breakdown[L1_WR_ALLOC_R][HIT] = 0
	Total_core_cache_stats_breakdown[L1_WR_ALLOC_R][HIT_RESERVED] = 0
	Total_core_cache_stats_breakdown[L1_WR_ALLOC_R][MISS] = 0
	Total_core_cache_stats_breakdown[L1_WR_ALLOC_R][RESERVATION_FAIL] = 0
	Total_core_cache_stats_breakdown[L2_WR_ALLOC_R][HIT] = 0
	Total_core_cache_stats_breakdown[L2_WR_ALLOC_R][HIT_RESERVED] = 0
	Total_core_cache_stats_breakdown[L2_WR_ALLOC_R][MISS] = 0
	Total_core_cache_stats_breakdown[L2_WR_ALLOC_R][RESERVATION_FAIL] = 0
	Total_core_cache_stats_breakdown[CONST_ACC_R][TOTAL_ACCESS] = 36000
	Total_core_cache_stats_breakdown[INST_ACC_R][TOTAL_ACCESS] = 642375
Shader 0 warp_id issue ditsribution:
warp_id:
0, 1, 2, 3, 4, 5, 6, 7, 8, 9, 10, 11, 12, 13, 14, 15, 16, 17, 18, 19, 20, 21, 22, 23, 24, 25, 26, 27, 28, 29, 30, 31, 32, 33, 34, 35, 36, 37, 38, 39, 40, 41, 42, 43, 44, 45, 46, 47, 48, 49, 50, 51, 52, 53, 54, 55, 56, 57, 58, 59, 60, 61, 62, 63, 
distro:
1075, 855, 925, 858, 1009, 861, 933, 862, 1074, 852, 922, 854, 1007, 858, 934, 862, 716, 572, 616, 571, 673, 573, 623, 576, 716, 573, 616, 572, 675, 574, 620, 576, 895, 714, 770, 714, 844, 716, 776, 723, 895, 711, 769, 716, 843, 714, 776, 721, 895, 713, 770, 716, 844, 716, 776, 719, 894, 716, 769, 715, 842, 717, 776, 721, 
gpgpu_n_tot_thrd_icount = 39060000
gpgpu_n_tot_w_icount = 1220625
gpgpu_n_stall_shd_mem = 46076
gpgpu_n_mem_read_local = 0
gpgpu_n_mem_write_local = 0
gpgpu_n_mem_read_global = 27562
gpgpu_n_mem_write_global = 27000
gpgpu_n_mem_texture = 0
gpgpu_n_mem_const = 28
gpgpu_n_load_insn  = 306000
gpgpu_n_store_insn = 306000
gpgpu_n_shmem_insn = 2286000
gpgpu_n_tex_insn = 0
gpgpu_n_const_mem_insn = 0
gpgpu_n_param_mem_insn = 1152000
gpgpu_n_shmem_bkconflict = 0
gpgpu_n_cache_bkconflict = 0
gpgpu_n_intrawarp_mshr_merge = 0
gpgpu_n_cmem_portconflict = 4886
gpgpu_stall_shd_mem[c_mem][bk_conf] = 4886
gpgpu_stall_shd_mem[c_mem][mshr_rc] = 0
gpgpu_stall_shd_mem[c_mem][icnt_rc] = 0
gpgpu_stall_shd_mem[c_mem][data_port_stall] = 0
gpgpu_stall_shd_mem[t_mem][mshr_rc] = 0
gpgpu_stall_shd_mem[t_mem][icnt_rc] = 0
gpgpu_stall_shd_mem[t_mem][data_port_stall] = 0
gpgpu_stall_shd_mem[s_mem][bk_conf] = 0
gpgpu_stall_shd_mem[gl_mem][bk_conf] = 0
gpgpu_stall_shd_mem[gl_mem][coal_stall] = 35370
gpgpu_stall_shd_mem[gl_mem][data_port_stall] = 0
gpgpu_stall_shd_mem[g_mem_ld][mshr_rc] = 0
gpgpu_stall_shd_mem[g_mem_ld][icnt_rc] = 5820
gpgpu_stall_shd_mem[g_mem_ld][wb_icnt_rc] = 0
gpgpu_stall_shd_mem[g_mem_ld][wb_rsrv_fail] = 0
gpgpu_stall_shd_mem[g_mem_st][mshr_rc] = 0
gpgpu_stall_shd_mem[g_mem_st][icnt_rc] = 0
gpgpu_stall_shd_mem[g_mem_st][wb_icnt_rc] = 0
gpgpu_stall_shd_mem[g_mem_st][wb_rsrv_fail] = 0
gpgpu_stall_shd_mem[l_mem_ld][mshr_rc] = 0
gpgpu_stall_shd_mem[l_mem_ld][icnt_rc] = 0
gpgpu_stall_shd_mem[l_mem_ld][wb_icnt_rc] = 0
gpgpu_stall_shd_mem[l_mem_ld][wb_rsrv_fail] = 0
gpgpu_stall_shd_mem[l_mem_st][mshr_rc] = 0
gpgpu_stall_shd_mem[l_mem_st][icnt_rc] = 0
gpgpu_stall_shd_mem[l_mem_ld][wb_icnt_rc] = 0
gpgpu_stall_shd_mem[l_mem_ld][wb_rsrv_fail] = 0
gpu_reg_bank_conflict_stalls = 0
Warp Occupancy Distribution:
Stall:58499	W0_Idle:2246743	W0_Scoreboard:76928687	W1:0	W2:144000	W3:0	W4:0	W5:0	W6:0	W7:0	W8:0	W9:0	W10:0	W11:0	W12:0	W13:0	W14:0	W15:0	W16:185625	W17:0	W18:0	W19:0	W20:0	W21:0	W22:0	W23:0	W24:0	W25:0	W26:0	W27:0	W28:0	W29:0	W30:0	W31:0	W32:891000
traffic_breakdown_coretomem[CONST_ACC_R] = 224 {8:28,}
traffic_breakdown_coretomem[GLOBAL_ACC_R] = 220496 {8:27562,}
traffic_breakdown_coretomem[GLOBAL_ACC_W] = 2087968 {40:13501,72:4499,136:9000,}
traffic_breakdown_coretomem[INST_ACC_R] = 1344 {8:168,}
traffic_breakdown_memtocore[CONST_ACC_R] = 2016 {72:28,}
traffic_breakdown_memtocore[GLOBAL_ACC_R] = 2200496 {40:12375,72:5624,136:9563,}
traffic_breakdown_memtocore[GLOBAL_ACC_W] = 216000 {8:27000,}
traffic_breakdown_memtocore[INST_ACC_R] = 22848 {136:168,}
maxmrqlatency = 82 
maxdqlatency = 0 
maxmflatency = 302099 
averagemflatency = 67889 
max_icnt2mem_latency = 301827 
max_icnt2sh_latency = 1656179 
mrq_lat_table:9467 	492 	813 	2069 	2983 	3101 	580 	0 	0 	0 	0 	0 	0 	0 	0 	0 	0 	0 	0 	0 	0 	0 	0 	0 	0 	0 	0 	0 	0 	0 	0 	0 	
dq_lat_table:0 	0 	0 	0 	0 	0 	0 	0 	0 	0 	0 	0 	0 	0 	0 	0 	0 	0 	0 	0 	0 	0 	0 	0 	0 	0 	0 	0 	0 	0 	0 	0 	
mf_lat_table:0 	0 	0 	0 	0 	0 	0 	19359 	1748 	0 	72 	827 	1604 	1441 	2008 	4848 	9064 	12795 	824 	0 	0 	0 	0 	0 	0 	0 	0 	0 	0 	0 	0 	0 	
icnt2mem_lat_table:0 	0 	3773 	15848 	67 	0 	1587 	0 	0 	0 	72 	1121 	1310 	1441 	2160 	4696 	9064 	12795 	824 	0 	0 	0 	0 	0 	
icnt2sh_lat_table:0 	0 	7185 	10386 	9429 	586 	4 	0 	0 	0 	0 	0 	0 	0 	0 	0 	0 	176 	3776 	10280 	12768 	0 	0 	0 	
mf_lat_pw_table:0 	0 	0 	0 	0 	0 	0 	339 	21 	0 	0 	1 	2 	2 	9 	31 	104 	178 	13 	0 	0 	0 	0 	0 	0 	0 	0 	0 	0 	0 	0 	0 	
maximum concurrent accesses to same row:
dram[0]:       136       136        85        85        16        16        16        16        16        16        16        16        11        13        16        16 
dram[1]:       128       136        85        85        16        16        16        16        16        16        16        16        13        13        16        16 
dram[2]:       128       136        85        85        16        16        16        16        16        16        16        16        13        13        16        16 
dram[3]:       111       119        85        85        16        16        16        16        16        16        16        16        13        13        16        16 
dram[4]:       111       119        68        68        16        16        16        16        16        16        16        16        13        13        16        16 
dram[5]:       119       111        68        68        16        16        16        16        16        16        16        16        13        13        16        16 
dram[6]:       119       119        68        68        16        16        16        16        16        16        16        16        13        13        16        16 
dram[7]:       111       119        68        68        16        16        16        16        16        16        16        16        13        13        16        16 
dram[8]:       119       103        68        68        16        16        16        16        16        16        16        16        13        13        16        16 
dram[9]:       119       119        68        60        16        16        16        16        16        16        16        16        13        13        16        16 
dram[10]:       119       111        68        68        16        16        16        16        16        16        16        16        14        14        16        16 
maximum service time to same row:
dram[0]:    325605    325609    435035    435034    481926    481930    637708    637699    414996    414990    526210    526214    346465    346466    346837    346834 
dram[1]:    325625    325603    435037    435029    481931    481924    637703    607751    415005    415005    526214    526211    346469    346469    346834    346818 
dram[2]:    325627    325624    435027    435036    481924    481927    607743    607743    415006    415010    526211    526203    346470    346467    346798    346801 
dram[3]:    325632    325633    435035    435034    481927    481927    607743    607740    415010    415014    526201    526199    346464    346467    346801    346799 
dram[4]:    325635    325635    435033    435038    481928    481926    607755    607755    415011    415010    526208    526213    346464    346467    346819    346791 
dram[5]:    325625    325625    435041    435026    481932    481938    607741    554175    415019    415018    526212    526214    346471    346465    346791    346789 
dram[6]:    325627    325627    435027    435024    481923    481923    554161    554161    415019    415004    526209    526209    346467    346466    346790    346774 
dram[7]:    325631    325632    435038    435037    481921    481921    554162    554163    415004    415010    526213    526213    346461    346461    346821    346822 
dram[8]:    325613    325639    435038    435038    481926    481927    637732    637731    415009    415010    526207    526211    346463    346463    346821    346828 
dram[9]:    325602    325602    435036    435042    481911    481926    637730    637730    415010    415004    526209    526208    346464    346458    346826    346835 
dram[10]:    325603    325604    435026    435027    481926    481923    637719    637710    415000    414995    526208    526206    346460    346471    346837    346836 
average row accesses per activate:
dram[0]: 35.666668 37.333332 29.250000 29.250000 16.000000 16.000000 12.750000 12.750000 16.000000 16.000000 12.500000 12.500000  4.266667  4.571429  9.166667  9.166667 
dram[1]: 34.666668 37.333332 29.250000 29.250000 16.000000 16.000000 12.750000 12.750000 16.000000 16.000000 12.750000 12.750000  4.571429  4.571429  9.166667  9.166667 
dram[2]: 35.555557 37.333332 29.250000 29.250000 16.000000 16.000000 12.750000 12.750000 16.000000 16.000000 12.750000 12.750000  4.571429  4.571429  9.166667  9.166667 
dram[3]: 35.555557 37.333332 29.250000 29.250000 16.000000 16.000000 12.750000 12.750000 16.000000 16.000000 12.750000 12.750000  4.571429  4.571429  9.166667  9.166667 
dram[4]: 35.555557 37.333332 29.250000 29.250000 16.000000 16.000000 12.750000 12.750000 16.000000 16.000000 12.750000 12.750000  4.571429  4.571429  8.000000  8.000000 
dram[5]: 37.333332 35.555557 29.250000 29.250000 16.000000 16.000000 12.750000 12.750000 16.000000 16.000000 12.750000 12.750000  4.571429  4.571429  8.000000  8.000000 
dram[6]: 37.333332 36.444443 28.250000 27.125000 16.000000 16.000000 12.750000 12.750000 16.000000 16.000000 12.750000 12.750000  4.571429  4.571429  8.000000  8.000000 
dram[7]: 36.444443 36.444443 27.125000 27.125000 16.000000 16.000000 12.750000 12.750000 16.000000 16.000000 12.750000 12.750000  5.333333  5.333333  9.166667 13.500000 
dram[8]: 37.333332 35.555557 27.125000 26.125000 16.000000 16.000000 12.500000 12.500000 16.000000 16.000000 12.750000 12.750000  5.333333  5.333333 13.500000 13.500000 
dram[9]: 36.444443 37.333332 27.125000 26.125000 16.000000 16.000000 12.500000 12.500000 16.000000 16.000000 12.750000 12.750000  5.333333  5.333333  9.000000  9.000000 
dram[10]: 36.444443 35.555557 27.125000 27.125000 16.000000 16.000000 12.500000 12.500000 16.000000 16.000000 12.750000 12.750000  5.333333  4.923077  9.000000  9.000000 
average row locality = 19505/1130 = 17.261063
number of total memory accesses made:
dram[0]:         0         0         0         0         0         0         0         0         0         0         0         0         0         0         0         0 
dram[1]:         0         0         0         0         0         0         0         0         0         0         0         0         0         0         0         0 
dram[2]:         0         0         0         0         0         0         0         0         0         0         0         0         0         0         0         0 
dram[3]:         0         0         0         0         0         0         0         0         0         0         0         0         0         0         0         0 
dram[4]:         0         0         0         0         0         0         0         0         0         0         0         0         0         0         0         0 
dram[5]:         0         0         0         0         0         0         0         0         0         0         0         0         0         0         0         0 
dram[6]:         0         0         0         0         0         0         0         0         0         0         0         0         0         0         0         0 
dram[7]:         0         0         0         0         0         0         0         0         0         0         0         0         0         0         0         0 
dram[8]:         0         0         0         0         0         0         0         0         0         0         0         0         0         0         0         0 
dram[9]:         0         0         0         0         0         0         0         0         0         0         0         0         0         0         0         0 
dram[10]:         0         0         0         0         0         0         0         0         0         0         0         0         0         0         0         0 
total accesses: 0
min_bank_accesses = 0!
min_chip_accesses = 0!
number of total read accesses:
dram[0]:        81        80        74        74        64        64        51        51        48        48        50        50        64        64        55        55 
dram[1]:        80        80        74        74        64        64        51        51        48        48        51        51        64        64        55        55 
dram[2]:        80        80        74        74        64        64        51        51        48        48        51        51        64        64        55        55 
dram[3]:        80        80        74        74        64        64        51        51        48        48        51        51        64        64        55        55 
dram[4]:        80        80        74        74        64        64        51        51        48        48        51        51        64        64        56        56 
dram[5]:        80        80        74        74        64        64        51        51        48        48        51        51        64        64        56        56 
dram[6]:        80        80        74        73        64        64        51        51        48        48        51        51        64        64        56        56 
dram[7]:        80        80        73        73        64        64        51        51        48        48        51        51        64        64        55        54 
dram[8]:        80        80        73        73        64        64        50        50        48        48        51        51        64        64        54        54 
dram[9]:        80        80        73        73        64        64        50        50        48        48        51        51        64        64        54        54 
dram[10]:        80        80        73        73        64        64        50        50        48        48        51        51        64        64        54        54 
total reads: 10697
bank skew: 81/48 = 1.69
chip skew: 976/968 = 1.01
number of total write accesses:
dram[0]:       240       256       160       160         0         0         0         0         0         0         0         0         0         0         0         0 
dram[1]:       232       256       160       160         0         0         0         0         0         0         0         0         0         0         0         0 
dram[2]:       240       256       160       160         0         0         0         0         0         0         0         0         0         0         0         0 
dram[3]:       240       256       160       160         0         0         0         0         0         0         0         0         0         0         0         0 
dram[4]:       240       256       160       160         0         0         0         0         0         0         0         0         0         0         0         0 
dram[5]:       256       240       160       160         0         0         0         0         0         0         0         0         0         0         0         0 
dram[6]:       256       248       152       144         0         0         0         0         0         0         0         0         0         0         0         0 
dram[7]:       248       248       144       144         0         0         0         0         0         0         0         0         0         0         0         0 
dram[8]:       256       240       144       136         0         0         0         0         0         0         0         0         0         0         0         0 
dram[9]:       248       256       144       136         0         0         0         0         0         0         0         0         0         0         0         0 
dram[10]:       248       240       144       144         0         0         0         0         0         0         0         0         0         0         0         0 
total reads: 8808
min_bank_accesses = 0!
chip skew: 816/776 = 1.05
average mf latency per bank:
dram[0]:      91811     85616    102993    104102    314128    314052    365792    360228    322877    322892    313129    314848    422305    420042    360677    349998
dram[1]:      94698     89061     98636     99651    311313    307956    358387    357593    315343    318280    310726    314059    443131    442852    340197    336651
dram[2]:      92191     79865     95857     97110    313218    317583    365313    369725    328122    331106    315945    309531    434639    421974    318146    317611
dram[3]:      95563     88219    102857    113362    322257    320771    366982    363884    326650    325205    313418    314721    407665    405094    327582    326645
dram[4]:      89301     89191    109387    101230    315077    313995    363268    364200    324126    321098    306844    309771    418526    416047    329546    329813
dram[5]:      86611     90718    131828    114460    317436    321281    369904    369554    313879    316157    308520    308513    390853    389464    367652    368583
dram[6]:      84518     83243    103921    103621    321885    317780    367449    366132    311219    302471    303432    299022    393479    389009    347991    345061
dram[7]:      87270     82718    104121    110186    317118    319686    366119    364396    301483    313577    304757    305439    392826    378822    326954    323082
dram[8]:      95067     98910    126974    110476    314431    315915    367347    373870    313674    308975    303340    299870    423489    418171    308136    305932
dram[9]:      88333    100129    120946    124508    320190    317636    369578    366067    308261    304856    306806    307600    411350    403118    321845    322298
dram[10]:      99227     97464    107426    103016    314452    314016    364288    363570    322981    324951    311031    309220    423318    420472    343743    344631
maximum mf latency per bank:
dram[0]:     207468    202275    210918    210920    260437    260418    286397    286414    296888    296890    302070    302079    223504    223491    179628    179636
dram[1]:     202253    196628    210921    210922    260422    260439    286396    286410    296890    296892    302084    302077    223492    223505    179601    179616
dram[2]:     196579    192562    210908    210924    260425    260438    286397    286414    296893    296900    302067    302099    223499    223510    179618    179610
dram[3]:     192564    192579    210899    212315    260428    260439    286476    286486    296885    296893    302071    302078    223497    223508    179599    179583
dram[4]:     206673    206693    210905    210906    260424    260424    286476    286480    296905    296903    302068    302074    223497    223499    179583    179600
dram[5]:     192571    192572    212295    212219    260426    260437    286470    286491    296890    296906    302065    302076    223486    223490    179584    179600
dram[6]:     192581    192586    210920    210923    260434    260436    286478    286500    296880    296888    302054    291709    223507    223508    179586    179598
dram[7]:     197046    197054    210913    212224    260436    260447    286486    286500    296888    296905    291711    291711    223489    223499    179617    179648
dram[8]:     192579    217906    212268    210915    260431    260445    286486    286485    296892    296905    291690    291695    223489    223501    179630    179639
dram[9]:     217882    266987    210916    210933    260447    260447    286486    286493    296890    296905    302068    302076    223497    223512    179633    179641
dram[10]:     266975    207488    210919    210933    260449    260439    286471    286417    296893    296880    302065    302093    223501    223512    179629    179655
Memory Partition 0: 
Cache L2_bank_000:
MSHR contents

Cache L2_bank_001:
MSHR contents

In Dram Latency Queue (total = 0): 
DRAM[0]: 16 bks, busW=4 BL=8 CL=12, tRRD=2 tCCD=6, tRCD=12 tRAS=28 tRP=12 tRC=40
n_cmd=2662782 n_nop=2657878 n_act=106 n_pre=90 n_req=1789 n_rd=3892 n_write=816 bw_util=0.003536
n_activity=15292 dram_eff=0.6157
bk0: 324a 2660883i bk1: 320a 2660339i bk2: 296a 2661414i bk3: 296a 2660944i bk4: 256a 2662188i bk5: 256a 2661893i bk6: 204a 2662314i bk7: 204a 2662018i bk8: 192a 2662375i bk9: 192a 2662098i bk10: 200a 2662321i bk11: 200a 2662092i bk12: 256a 2661946i bk13: 256a 2661644i bk14: 220a 2662212i bk15: 220a 2661932i 
dram_util_bins: 0 0 0 0 0 0 0 0 0 0
dram_eff_bins: 0 0 0 0 0 0 0 0 0 0
mrqq: max=57 avg=0.0192355
Memory Partition 1: 
Cache L2_bank_002:
MSHR contents

Cache L2_bank_003:
MSHR contents

In Dram Latency Queue (total = 0): 
DRAM[1]: 16 bks, busW=4 BL=8 CL=12, tRRD=2 tCCD=6, tRCD=12 tRAS=28 tRP=12 tRC=40
n_cmd=2662782 n_nop=2657886 n_act=104 n_pre=88 n_req=1782 n_rd=3896 n_write=808 bw_util=0.003533
n_activity=15377 dram_eff=0.6118
bk0: 320a 2661010i bk1: 320a 2660525i bk2: 296a 2661425i bk3: 296a 2660870i bk4: 256a 2662205i bk5: 256a 2661853i bk6: 204a 2662310i bk7: 204a 2662053i bk8: 192a 2662347i bk9: 192a 2662099i bk10: 204a 2662306i bk11: 204a 2662045i bk12: 256a 2661971i bk13: 256a 2661635i bk14: 220a 2662222i bk15: 220a 2661963i 
dram_util_bins: 0 0 0 0 0 0 0 0 0 0
dram_eff_bins: 0 0 0 0 0 0 0 0 0 0
mrqq: max=41 avg=0.0169826
Memory Partition 2: 
Cache L2_bank_004:
MSHR contents

Cache L2_bank_005:
MSHR contents

In Dram Latency Queue (total = 0): 
DRAM[2]: 16 bks, busW=4 BL=8 CL=12, tRRD=2 tCCD=6, tRCD=12 tRAS=28 tRP=12 tRC=40
n_cmd=2662782 n_nop=2657878 n_act=104 n_pre=88 n_req=1790 n_rd=3896 n_write=816 bw_util=0.003539
n_activity=15113 dram_eff=0.6236
bk0: 320a 2661004i bk1: 320a 2660319i bk2: 296a 2661334i bk3: 296a 2660904i bk4: 256a 2662198i bk5: 256a 2661841i bk6: 204a 2662309i bk7: 204a 2662030i bk8: 192a 2662360i bk9: 192a 2662120i bk10: 204a 2662314i bk11: 204a 2662043i bk12: 256a 2661967i bk13: 256a 2661657i bk14: 220a 2662181i bk15: 220a 2661946i 
dram_util_bins: 0 0 0 0 0 0 0 0 0 0
dram_eff_bins: 0 0 0 0 0 0 0 0 0 0
mrqq: max=48 avg=0.0161297
Memory Partition 3: 
Cache L2_bank_006:
MSHR contents

Cache L2_bank_007:
MSHR contents

In Dram Latency Queue (total = 0): 
DRAM[3]: 16 bks, busW=4 BL=8 CL=12, tRRD=2 tCCD=6, tRCD=12 tRAS=28 tRP=12 tRC=40
n_cmd=2662782 n_nop=2657878 n_act=104 n_pre=88 n_req=1790 n_rd=3896 n_write=816 bw_util=0.003539
n_activity=15054 dram_eff=0.626
bk0: 320a 2661007i bk1: 320a 2660277i bk2: 296a 2661343i bk3: 296a 2660843i bk4: 256a 2662207i bk5: 256a 2661839i bk6: 204a 2662300i bk7: 204a 2662056i bk8: 192a 2662370i bk9: 192a 2662110i bk10: 204a 2662322i bk11: 204a 2662051i bk12: 256a 2661981i bk13: 256a 2661667i bk14: 220a 2662184i bk15: 220a 2661970i 
dram_util_bins: 0 0 0 0 0 0 0 0 0 0
dram_eff_bins: 0 0 0 0 0 0 0 0 0 0
mrqq: max=58 avg=0.0183534
Memory Partition 4: 
Cache L2_bank_008:
MSHR contents

Cache L2_bank_009:
MSHR contents

In Dram Latency Queue (total = 0): 
DRAM[4]: 16 bks, busW=4 BL=8 CL=12, tRRD=2 tCCD=6, tRCD=12 tRAS=28 tRP=12 tRC=40
n_cmd=2662782 n_nop=2657866 n_act=106 n_pre=90 n_req=1792 n_rd=3904 n_write=816 bw_util=0.003545
n_activity=15403 dram_eff=0.6129
bk0: 320a 2660998i bk1: 320a 2660365i bk2: 296a 2661377i bk3: 296a 2660797i bk4: 256a 2662201i bk5: 256a 2661887i bk6: 204a 2662289i bk7: 204a 2662020i bk8: 192a 2662354i bk9: 192a 2662140i bk10: 204a 2662319i bk11: 204a 2662036i bk12: 256a 2661980i bk13: 256a 2661664i bk14: 224a 2662183i bk15: 224a 2661892i 
dram_util_bins: 0 0 0 0 0 0 0 0 0 0
dram_eff_bins: 0 0 0 0 0 0 0 0 0 0
mrqq: max=58 avg=0.0178603
Memory Partition 5: 
Cache L2_bank_010:
MSHR contents

Cache L2_bank_011:
MSHR contents

In Dram Latency Queue (total = 0): 
DRAM[5]: 16 bks, busW=4 BL=8 CL=12, tRRD=2 tCCD=6, tRCD=12 tRAS=28 tRP=12 tRC=40
n_cmd=2662782 n_nop=2657866 n_act=106 n_pre=90 n_req=1792 n_rd=3904 n_write=816 bw_util=0.003545
n_activity=15484 dram_eff=0.6097
bk0: 320a 2660942i bk1: 320a 2660485i bk2: 296a 2661412i bk3: 296a 2660875i bk4: 256a 2662200i bk5: 256a 2661883i bk6: 204a 2662298i bk7: 204a 2662019i bk8: 192a 2662349i bk9: 192a 2662111i bk10: 204a 2662306i bk11: 204a 2662021i bk12: 256a 2661979i bk13: 256a 2661706i bk14: 224a 2662174i bk15: 224a 2661888i 
dram_util_bins: 0 0 0 0 0 0 0 0 0 0
dram_eff_bins: 0 0 0 0 0 0 0 0 0 0
mrqq: max=41 avg=0.0153388
Memory Partition 6: 
Cache L2_bank_012:
MSHR contents

Cache L2_bank_013:
MSHR contents

In Dram Latency Queue (total = 0): 
DRAM[6]: 16 bks, busW=4 BL=8 CL=12, tRRD=2 tCCD=6, tRCD=12 tRAS=28 tRP=12 tRC=40
n_cmd=2662782 n_nop=2657886 n_act=106 n_pre=90 n_req=1775 n_rd=3900 n_write=800 bw_util=0.00353
n_activity=15587 dram_eff=0.6031
bk0: 320a 2660908i bk1: 320a 2660340i bk2: 296a 2661318i bk3: 292a 2661065i bk4: 256a 2662203i bk5: 256a 2661870i bk6: 204a 2662310i bk7: 204a 2662052i bk8: 192a 2662363i bk9: 192a 2662118i bk10: 204a 2662320i bk11: 204a 2662031i bk12: 256a 2661994i bk13: 256a 2661647i bk14: 224a 2662203i bk15: 224a 2661931i 
dram_util_bins: 0 0 0 0 0 0 0 0 0 0
dram_eff_bins: 0 0 0 0 0 0 0 0 0 0
mrqq: max=49 avg=0.0183079
Memory Partition 7: 
Cache L2_bank_014:
MSHR contents

Cache L2_bank_015:
MSHR contents

In Dram Latency Queue (total = 0): 
DRAM[7]: 16 bks, busW=4 BL=8 CL=12, tRRD=2 tCCD=6, tRCD=12 tRAS=28 tRP=12 tRC=40
n_cmd=2662782 n_nop=2657934 n_act=98 n_pre=82 n_req=1755 n_rd=3884 n_write=784 bw_util=0.003506
n_activity=15042 dram_eff=0.6207
bk0: 320a 2660964i bk1: 320a 2660332i bk2: 292a 2661416i bk3: 292a 2660961i bk4: 256a 2662190i bk5: 256a 2661873i bk6: 204a 2662310i bk7: 204a 2662047i bk8: 192a 2662358i bk9: 192a 2662119i bk10: 204a 2662319i bk11: 204a 2662039i bk12: 256a 2662021i bk13: 256a 2661685i bk14: 220a 2662233i bk15: 216a 2662022i 
dram_util_bins: 0 0 0 0 0 0 0 0 0 0
dram_eff_bins: 0 0 0 0 0 0 0 0 0 0
mrqq: max=48 avg=0.0178449
Memory Partition 8: 
Cache L2_bank_016:
MSHR contents

Cache L2_bank_017:
MSHR contents

In Dram Latency Queue (total = 0): 
DRAM[8]: 16 bks, busW=4 BL=8 CL=12, tRRD=2 tCCD=6, tRCD=12 tRAS=28 tRP=12 tRC=40
n_cmd=2662782 n_nop=2657958 n_act=96 n_pre=80 n_req=1744 n_rd=3872 n_write=776 bw_util=0.003491
n_activity=14957 dram_eff=0.6215
bk0: 320a 2660944i bk1: 320a 2660375i bk2: 292a 2661480i bk3: 292a 2660933i bk4: 256a 2662193i bk5: 256a 2661861i bk6: 200a 2662323i bk7: 200a 2662049i bk8: 192a 2662345i bk9: 192a 2662130i bk10: 204a 2662311i bk11: 204a 2662033i bk12: 256a 2662004i bk13: 256a 2661688i bk14: 216a 2662280i bk15: 216a 2662011i 
dram_util_bins: 0 0 0 0 0 0 0 0 0 0
dram_eff_bins: 0 0 0 0 0 0 0 0 0 0
mrqq: max=58 avg=0.0168853
Memory Partition 9: 
Cache L2_bank_018:
MSHR contents

Cache L2_bank_019:
MSHR contents

In Dram Latency Queue (total = 0): 
DRAM[9]: 16 bks, busW=4 BL=8 CL=12, tRRD=2 tCCD=6, tRCD=12 tRAS=28 tRP=12 tRC=40
n_cmd=2662782 n_nop=2657942 n_act=100 n_pre=84 n_req=1752 n_rd=3872 n_write=784 bw_util=0.003497
n_activity=15099 dram_eff=0.6167
bk0: 320a 2660886i bk1: 320a 2660370i bk2: 292a 2661461i bk3: 292a 2660945i bk4: 256a 2662193i bk5: 256a 2661845i bk6: 200a 2662313i bk7: 200a 2662040i bk8: 192a 2662373i bk9: 192a 2662096i bk10: 204a 2662314i bk11: 204a 2662048i bk12: 256a 2662023i bk13: 256a 2661670i bk14: 216a 2662226i bk15: 216a 2661955i 
dram_util_bins: 0 0 0 0 0 0 0 0 0 0
dram_eff_bins: 0 0 0 0 0 0 0 0 0 0
mrqq: max=51 avg=0.0165391
Memory Partition 10: 
Cache L2_bank_020:
MSHR contents

Cache L2_bank_021:
MSHR contents

In Dram Latency Queue (total = 0): 
DRAM[10]: 16 bks, busW=4 BL=8 CL=12, tRRD=2 tCCD=6, tRCD=12 tRAS=28 tRP=12 tRC=40
n_cmd=2662782 n_nop=2657948 n_act=101 n_pre=85 n_req=1744 n_rd=3872 n_write=776 bw_util=0.003491
n_activity=15145 dram_eff=0.6138
bk0: 320a 2660956i bk1: 320a 2660411i bk2: 292a 2661489i bk3: 292a 2660888i bk4: 256a 2662188i bk5: 256a 2661865i bk6: 200a 2662314i bk7: 200a 2662072i bk8: 192a 2662355i bk9: 192a 2662139i bk10: 204a 2662320i bk11: 204a 2662029i bk12: 256a 2662035i bk13: 256a 2661676i bk14: 216a 2662225i bk15: 216a 2661952i 
dram_util_bins: 0 0 0 0 0 0 0 0 0 0
dram_eff_bins: 0 0 0 0 0 0 0 0 0 0
mrqq: max=50 avg=0.0173334

========= L2 cache stats =========
L2_cache_bank[0]: Access = 2505, Miss = 487, Miss_rate = 0.194, Pending_hits = 1168, Reservation_fails = 0
L2_cache_bank[1]: Access = 2479, Miss = 486, Miss_rate = 0.196, Pending_hits = 1174, Reservation_fails = 0
L2_cache_bank[2]: Access = 2493, Miss = 487, Miss_rate = 0.195, Pending_hits = 1162, Reservation_fails = 0
L2_cache_bank[3]: Access = 2496, Miss = 487, Miss_rate = 0.195, Pending_hits = 1188, Reservation_fails = 0
L2_cache_bank[4]: Access = 2496, Miss = 487, Miss_rate = 0.195, Pending_hits = 1156, Reservation_fails = 0
L2_cache_bank[5]: Access = 2496, Miss = 487, Miss_rate = 0.195, Pending_hits = 1187, Reservation_fails = 0
L2_cache_bank[6]: Access = 2496, Miss = 487, Miss_rate = 0.195, Pending_hits = 1168, Reservation_fails = 0
L2_cache_bank[7]: Access = 2494, Miss = 487, Miss_rate = 0.195, Pending_hits = 1189, Reservation_fails = 0
L2_cache_bank[8]: Access = 2524, Miss = 488, Miss_rate = 0.193, Pending_hits = 1201, Reservation_fails = 0
L2_cache_bank[9]: Access = 2524, Miss = 488, Miss_rate = 0.193, Pending_hits = 1217, Reservation_fails = 0
L2_cache_bank[10]: Access = 2524, Miss = 488, Miss_rate = 0.193, Pending_hits = 1213, Reservation_fails = 0
L2_cache_bank[11]: Access = 2524, Miss = 488, Miss_rate = 0.193, Pending_hits = 1176, Reservation_fails = 0
L2_cache_bank[12]: Access = 2516, Miss = 488, Miss_rate = 0.194, Pending_hits = 1176, Reservation_fails = 0
L2_cache_bank[13]: Access = 2508, Miss = 487, Miss_rate = 0.194, Pending_hits = 1161, Reservation_fails = 0
L2_cache_bank[14]: Access = 2470, Miss = 486, Miss_rate = 0.197, Pending_hits = 1158, Reservation_fails = 0
L2_cache_bank[15]: Access = 2461, Miss = 485, Miss_rate = 0.197, Pending_hits = 1146, Reservation_fails = 0
L2_cache_bank[16]: Access = 2459, Miss = 484, Miss_rate = 0.197, Pending_hits = 1157, Reservation_fails = 0
L2_cache_bank[17]: Access = 2459, Miss = 484, Miss_rate = 0.197, Pending_hits = 1134, Reservation_fails = 0
L2_cache_bank[18]: Access = 2459, Miss = 484, Miss_rate = 0.197, Pending_hits = 1149, Reservation_fails = 0
L2_cache_bank[19]: Access = 2457, Miss = 484, Miss_rate = 0.197, Pending_hits = 1149, Reservation_fails = 0
L2_cache_bank[20]: Access = 2459, Miss = 484, Miss_rate = 0.197, Pending_hits = 1134, Reservation_fails = 0
L2_cache_bank[21]: Access = 2459, Miss = 484, Miss_rate = 0.197, Pending_hits = 1132, Reservation_fails = 0
L2_total_cache_accesses = 54758
L2_total_cache_misses = 10697
L2_total_cache_miss_rate = 0.1954
L2_total_cache_pending_hits = 25695
L2_total_cache_reservation_fails = 0
L2_total_cache_breakdown:
	L2_cache_stats_breakdown[GLOBAL_ACC_R][HIT] = 99
	L2_cache_stats_breakdown[GLOBAL_ACC_R][HIT_RESERVED] = 17336
	L2_cache_stats_breakdown[GLOBAL_ACC_R][MISS] = 10127
	L2_cache_stats_breakdown[GLOBAL_ACC_R][RESERVATION_FAIL] = 0
	L2_cache_stats_breakdown[LOCAL_ACC_R][HIT] = 0
	L2_cache_stats_breakdown[LOCAL_ACC_R][HIT_RESERVED] = 0
	L2_cache_stats_breakdown[LOCAL_ACC_R][MISS] = 0
	L2_cache_stats_breakdown[LOCAL_ACC_R][RESERVATION_FAIL] = 0
	L2_cache_stats_breakdown[CONST_ACC_R][HIT] = 0
	L2_cache_stats_breakdown[CONST_ACC_R][HIT_RESERVED] = 27
	L2_cache_stats_breakdown[CONST_ACC_R][MISS] = 1
	L2_cache_stats_breakdown[CONST_ACC_R][RESERVATION_FAIL] = 0
	L2_cache_stats_breakdown[TEXTURE_ACC_R][HIT] = 0
	L2_cache_stats_breakdown[TEXTURE_ACC_R][HIT_RESERVED] = 0
	L2_cache_stats_breakdown[TEXTURE_ACC_R][MISS] = 0
	L2_cache_stats_breakdown[TEXTURE_ACC_R][RESERVATION_FAIL] = 0
	L2_cache_stats_breakdown[GLOBAL_ACC_W][HIT] = 18192
	L2_cache_stats_breakdown[GLOBAL_ACC_W][HIT_RESERVED] = 8245
	L2_cache_stats_breakdown[GLOBAL_ACC_W][MISS] = 563
	L2_cache_stats_breakdown[GLOBAL_ACC_W][RESERVATION_FAIL] = 0
	L2_cache_stats_breakdown[LOCAL_ACC_W][HIT] = 0
	L2_cache_stats_breakdown[LOCAL_ACC_W][HIT_RESERVED] = 0
	L2_cache_stats_breakdown[LOCAL_ACC_W][MISS] = 0
	L2_cache_stats_breakdown[LOCAL_ACC_W][RESERVATION_FAIL] = 0
	L2_cache_stats_breakdown[L1_WRBK_ACC][HIT] = 0
	L2_cache_stats_breakdown[L1_WRBK_ACC][HIT_RESERVED] = 0
	L2_cache_stats_breakdown[L1_WRBK_ACC][MISS] = 0
	L2_cache_stats_breakdown[L1_WRBK_ACC][RESERVATION_FAIL] = 0
	L2_cache_stats_breakdown[L2_WRBK_ACC][HIT] = 0
	L2_cache_stats_breakdown[L2_WRBK_ACC][HIT_RESERVED] = 0
	L2_cache_stats_breakdown[L2_WRBK_ACC][MISS] = 0
	L2_cache_stats_breakdown[L2_WRBK_ACC][RESERVATION_FAIL] = 0
	L2_cache_stats_breakdown[INST_ACC_R][HIT] = 75
	L2_cache_stats_breakdown[INST_ACC_R][HIT_RESERVED] = 87
	L2_cache_stats_breakdown[INST_ACC_R][MISS] = 6
	L2_cache_stats_breakdown[INST_ACC_R][RESERVATION_FAIL] = 0
	L2_cache_stats_breakdown[L1_WR_ALLOC_R][HIT] = 0
	L2_cache_stats_breakdown[L1_WR_ALLOC_R][HIT_RESERVED] = 0
	L2_cache_stats_breakdown[L1_WR_ALLOC_R][MISS] = 0
	L2_cache_stats_breakdown[L1_WR_ALLOC_R][RESERVATION_FAIL] = 0
	L2_cache_stats_breakdown[L2_WR_ALLOC_R][HIT] = 0
	L2_cache_stats_breakdown[L2_WR_ALLOC_R][HIT_RESERVED] = 0
	L2_cache_stats_breakdown[L2_WR_ALLOC_R][MISS] = 0
	L2_cache_stats_breakdown[L2_WR_ALLOC_R][RESERVATION_FAIL] = 0
	L2_cache_stats_breakdown[GLOBAL_ACC_R][TOTAL_ACCESS] = 27562
	L2_cache_stats_breakdown[CONST_ACC_R][TOTAL_ACCESS] = 28
	L2_cache_stats_breakdown[GLOBAL_ACC_W][TOTAL_ACCESS] = 27000
	L2_cache_stats_breakdown[INST_ACC_R][TOTAL_ACCESS] = 168
L2_cache_data_port_util = 0.002
L2_cache_fill_port_util = 0.001

icnt_total_pkts_mem_to_simt=117361
icnt_total_pkts_simt_to_mem=113257
LD_mem_lat_dist  0 0 0 0 0 0 0 0 0 0 0 0 0 0 0 0 0 0 0 0 0 0 0 0 0 0 0
ST_mem_lat_dist  0 0 0 0 0 0 0 0 0 0 0 0 0 0 0 0 0 0 0 0 0 0 0 0 0 0 0
----------------------------Interconnect-DETAILS--------------------------------
Class 0:
Packet latency average = 16.7465
	minimum = 6
	maximum = 140
Network latency average = 13.9321
	minimum = 6
	maximum = 140
Slowest packet = 107713
Flit latency average = 14.8453
	minimum = 6
	maximum = 136
Slowest flit = 227711
Fragmentation average = 0
	minimum = 0
	maximum = 0
Injected packet rate average = 0.000763694
	minimum = 0.000646082 (at node 16)
	maximum = 0.000880038 (at node 36)
Accepted packet rate average = 0.000763694
	minimum = 0.000646082 (at node 16)
	maximum = 0.000880038 (at node 36)
Injected flit rate average = 0.00160818
	minimum = 0.00133714 (at node 16)
	maximum = 0.00190408 (at node 37)
Accepted flit rate average= 0.00160818
	minimum = 0.00138386 (at node 16)
	maximum = 0.00181063 (at node 37)
Injected packet length average = 2.10579
Accepted packet length average = 2.10579
Total in-flight flits = 0 (0 measured)
====== Overall Traffic Statistics ======
====== Traffic class 0 ======
Packet latency average = 16.7465 (1 samples)
	minimum = 6 (1 samples)
	maximum = 140 (1 samples)
Network latency average = 13.9321 (1 samples)
	minimum = 6 (1 samples)
	maximum = 140 (1 samples)
Flit latency average = 14.8453 (1 samples)
	minimum = 6 (1 samples)
	maximum = 136 (1 samples)
Fragmentation average = 0 (1 samples)
	minimum = 0 (1 samples)
	maximum = 0 (1 samples)
Injected packet rate average = 0.000763694 (1 samples)
	minimum = 0.000646082 (1 samples)
	maximum = 0.000880038 (1 samples)
Accepted packet rate average = 0.000763694 (1 samples)
	minimum = 0.000646082 (1 samples)
	maximum = 0.000880038 (1 samples)
Injected flit rate average = 0.00160818 (1 samples)
	minimum = 0.00133714 (1 samples)
	maximum = 0.00190408 (1 samples)
Accepted flit rate average = 0.00160818 (1 samples)
	minimum = 0.00138386 (1 samples)
	maximum = 0.00181063 (1 samples)
Injected packet size average = 2.10579 (1 samples)
Accepted packet size average = 2.10579 (1 samples)
Hops average = 1 (1 samples)
----------------------------END-of-Interconnect-DETAILS-------------------------


gpgpu_simulation_time = 0 days, 1 hrs, 29 min, 27 sec (5367 sec)
gpgpu_simulation_rate = 5755 (inst/sec)
gpgpu_simulation_rate = 308 (cycle/sec)
GPGPU-Sim: synchronize waiting for inactive GPU simulation
GPGPU-Sim API: Stream Manager State
GPGPU-Sim: detected inactive GPU simulation thread

GPGPU-Sim PTX: cudaLaunch for 0x0x402d5b (mode=performance simulation) on stream 0
GPGPU-Sim PTX: pushing kernel '_Z24bpnn_adjust_weights_cudaPfiS_iS_S_' to stream 0, gridDim= (1,1125,1) blockDim = (16,16,1) 
GPGPU-Sim uArch: Shader 27 bind to kernel 2 '_Z24bpnn_adjust_weights_cudaPfiS_iS_S_'
GPGPU-Sim uArch: CTA/core = 8, limited by: threads
GPGPU-Sim uArch: Shader 0 bind to kernel 2 '_Z24bpnn_adjust_weights_cudaPfiS_iS_S_'
GPGPU-Sim uArch: Shader 1 bind to kernel 2 '_Z24bpnn_adjust_weights_cudaPfiS_iS_S_'
GPGPU-Sim uArch: Shader 2 bind to kernel 2 '_Z24bpnn_adjust_weights_cudaPfiS_iS_S_'
GPGPU-Sim uArch: Shader 3 bind to kernel 2 '_Z24bpnn_adjust_weights_cudaPfiS_iS_S_'
GPGPU-Sim uArch: Shader 4 bind to kernel 2 '_Z24bpnn_adjust_weights_cudaPfiS_iS_S_'
GPGPU-Sim uArch: Shader 5 bind to kernel 2 '_Z24bpnn_adjust_weights_cudaPfiS_iS_S_'
GPGPU-Sim uArch: Shader 6 bind to kernel 2 '_Z24bpnn_adjust_weights_cudaPfiS_iS_S_'
GPGPU-Sim uArch: Shader 7 bind to kernel 2 '_Z24bpnn_adjust_weights_cudaPfiS_iS_S_'
GPGPU-Sim uArch: Shader 8 bind to kernel 2 '_Z24bpnn_adjust_weights_cudaPfiS_iS_S_'
GPGPU-Sim uArch: Shader 9 bind to kernel 2 '_Z24bpnn_adjust_weights_cudaPfiS_iS_S_'
GPGPU-Sim uArch: Shader 10 bind to kernel 2 '_Z24bpnn_adjust_weights_cudaPfiS_iS_S_'
GPGPU-Sim uArch: Shader 11 bind to kernel 2 '_Z24bpnn_adjust_weights_cudaPfiS_iS_S_'
GPGPU-Sim uArch: Shader 12 bind to kernel 2 '_Z24bpnn_adjust_weights_cudaPfiS_iS_S_'
GPGPU-Sim uArch: Shader 13 bind to kernel 2 '_Z24bpnn_adjust_weights_cudaPfiS_iS_S_'
GPGPU-Sim uArch: Shader 14 bind to kernel 2 '_Z24bpnn_adjust_weights_cudaPfiS_iS_S_'
GPGPU-Sim uArch: Shader 15 bind to kernel 2 '_Z24bpnn_adjust_weights_cudaPfiS_iS_S_'
GPGPU-Sim uArch: Shader 16 bind to kernel 2 '_Z24bpnn_adjust_weights_cudaPfiS_iS_S_'
GPGPU-Sim uArch: Shader 17 bind to kernel 2 '_Z24bpnn_adjust_weights_cudaPfiS_iS_S_'
GPGPU-Sim uArch: Shader 18 bind to kernel 2 '_Z24bpnn_adjust_weights_cudaPfiS_iS_S_'
GPGPU-Sim uArch: Shader 19 bind to kernel 2 '_Z24bpnn_adjust_weights_cudaPfiS_iS_S_'
GPGPU-Sim uArch: Shader 20 bind to kernel 2 '_Z24bpnn_adjust_weights_cudaPfiS_iS_S_'
GPGPU-Sim uArch: Shader 21 bind to kernel 2 '_Z24bpnn_adjust_weights_cudaPfiS_iS_S_'
GPGPU-Sim uArch: Shader 22 bind to kernel 2 '_Z24bpnn_adjust_weights_cudaPfiS_iS_S_'
GPGPU-Sim uArch: Shader 23 bind to kernel 2 '_Z24bpnn_adjust_weights_cudaPfiS_iS_S_'
GPGPU-Sim uArch: Shader 24 bind to kernel 2 '_Z24bpnn_adjust_weights_cudaPfiS_iS_S_'
GPGPU-Sim uArch: Shader 25 bind to kernel 2 '_Z24bpnn_adjust_weights_cudaPfiS_iS_S_'
GPGPU-Sim uArch: Shader 26 bind to kernel 2 '_Z24bpnn_adjust_weights_cudaPfiS_iS_S_'
Destroy streams for kernel 2: size 0
kernel_name = _Z24bpnn_adjust_weights_cudaPfiS_iS_S_ 
kernel_launch_uid = 2 
gpu_sim_cycle = 1687179
gpu_sim_insn = 15552352
gpu_ipc =       9.2180
gpu_tot_sim_cycle = 3581564
gpu_tot_sim_insn = 46440352
gpu_tot_ipc =      12.9665
gpu_tot_issued_cta = 2250
max_total_param_size = 0
gpu_stall_dramfull = 31989
gpu_stall_icnt2sh    = 20052
partiton_reqs_in_parallel = 37085949
partiton_reqs_in_parallel_total    = 31548660
partiton_level_parallism =      21.9810
partiton_level_parallism_total  =      19.1633
partiton_reqs_in_parallel_util = 37085949
partiton_reqs_in_parallel_util_total    = 31548660
gpu_sim_cycle_parition_util = 1687179
gpu_tot_sim_cycle_parition_util    = 1434030
partiton_level_parallism_util =      21.9810
partiton_level_parallism_util_total  =      21.9897
partiton_replys_in_parallel = 127244
partiton_replys_in_parallel_total    = 54758
L2_BW  =       7.1484 GB/Sec
L2_BW_total  =       4.8166 GB/Sec
gpu_total_sim_rate=4281

========= Core cache stats =========
L1I_cache:
	L1I_total_cache_accesses = 894386
	L1I_total_cache_misses = 6336
	L1I_total_cache_miss_rate = 0.0071
	L1I_total_cache_pending_hits = 0
	L1I_total_cache_reservation_fails = 54635
L1D_cache:
	L1D_cache_core[0]: Access = 0, Miss = 0, Miss_rate = -nan, Pending_hits = 0, Reservation_fails = 0
	L1D_cache_core[1]: Access = 0, Miss = 0, Miss_rate = -nan, Pending_hits = 0, Reservation_fails = 0
	L1D_cache_core[2]: Access = 0, Miss = 0, Miss_rate = -nan, Pending_hits = 0, Reservation_fails = 0
	L1D_cache_core[3]: Access = 0, Miss = 0, Miss_rate = -nan, Pending_hits = 0, Reservation_fails = 0
	L1D_cache_core[4]: Access = 0, Miss = 0, Miss_rate = -nan, Pending_hits = 0, Reservation_fails = 0
	L1D_cache_core[5]: Access = 0, Miss = 0, Miss_rate = -nan, Pending_hits = 0, Reservation_fails = 0
	L1D_cache_core[6]: Access = 0, Miss = 0, Miss_rate = -nan, Pending_hits = 0, Reservation_fails = 0
	L1D_cache_core[7]: Access = 0, Miss = 0, Miss_rate = -nan, Pending_hits = 0, Reservation_fails = 0
	L1D_cache_core[8]: Access = 0, Miss = 0, Miss_rate = -nan, Pending_hits = 0, Reservation_fails = 0
	L1D_cache_core[9]: Access = 0, Miss = 0, Miss_rate = -nan, Pending_hits = 0, Reservation_fails = 0
	L1D_cache_core[10]: Access = 0, Miss = 0, Miss_rate = -nan, Pending_hits = 0, Reservation_fails = 0
	L1D_cache_core[11]: Access = 0, Miss = 0, Miss_rate = -nan, Pending_hits = 0, Reservation_fails = 0
	L1D_cache_core[12]: Access = 0, Miss = 0, Miss_rate = -nan, Pending_hits = 0, Reservation_fails = 0
	L1D_cache_core[13]: Access = 0, Miss = 0, Miss_rate = -nan, Pending_hits = 0, Reservation_fails = 0
	L1D_cache_core[14]: Access = 0, Miss = 0, Miss_rate = -nan, Pending_hits = 0, Reservation_fails = 0
	L1D_cache_core[15]: Access = 0, Miss = 0, Miss_rate = -nan, Pending_hits = 0, Reservation_fails = 0
	L1D_cache_core[16]: Access = 0, Miss = 0, Miss_rate = -nan, Pending_hits = 0, Reservation_fails = 0
	L1D_cache_core[17]: Access = 0, Miss = 0, Miss_rate = -nan, Pending_hits = 0, Reservation_fails = 0
	L1D_cache_core[18]: Access = 0, Miss = 0, Miss_rate = -nan, Pending_hits = 0, Reservation_fails = 0
	L1D_cache_core[19]: Access = 0, Miss = 0, Miss_rate = -nan, Pending_hits = 0, Reservation_fails = 0
	L1D_cache_core[20]: Access = 0, Miss = 0, Miss_rate = -nan, Pending_hits = 0, Reservation_fails = 0
	L1D_cache_core[21]: Access = 0, Miss = 0, Miss_rate = -nan, Pending_hits = 0, Reservation_fails = 0
	L1D_cache_core[22]: Access = 0, Miss = 0, Miss_rate = -nan, Pending_hits = 0, Reservation_fails = 0
	L1D_cache_core[23]: Access = 0, Miss = 0, Miss_rate = -nan, Pending_hits = 0, Reservation_fails = 0
	L1D_cache_core[24]: Access = 0, Miss = 0, Miss_rate = -nan, Pending_hits = 0, Reservation_fails = 0
	L1D_cache_core[25]: Access = 0, Miss = 0, Miss_rate = -nan, Pending_hits = 0, Reservation_fails = 0
	L1D_cache_core[26]: Access = 0, Miss = 0, Miss_rate = -nan, Pending_hits = 0, Reservation_fails = 0
	L1D_cache_core[27]: Access = 0, Miss = 0, Miss_rate = -nan, Pending_hits = 0, Reservation_fails = 0
	L1D_total_cache_accesses = 0
	L1D_total_cache_misses = 0
	L1D_total_cache_pending_hits = 0
	L1D_total_cache_reservation_fails = 0
	L1D_cache_data_port_util = 0.000
	L1D_cache_fill_port_util = 0.000
L1C_cache:
	L1C_total_cache_accesses = 81000
	L1C_total_cache_misses = 1792
	L1C_total_cache_miss_rate = 0.0221
	L1C_total_cache_pending_hits = 0
	L1C_total_cache_reservation_fails = 4886
L1T_cache:
	L1T_total_cache_accesses = 0
	L1T_total_cache_misses = 0
	L1T_total_cache_pending_hits = 0
	L1T_total_cache_reservation_fails = 0

Total_core_cache_stats:
	Total_core_cache_stats_breakdown[GLOBAL_ACC_R][HIT] = 0
	Total_core_cache_stats_breakdown[GLOBAL_ACC_R][HIT_RESERVED] = 0
	Total_core_cache_stats_breakdown[GLOBAL_ACC_R][MISS] = 0
	Total_core_cache_stats_breakdown[GLOBAL_ACC_R][RESERVATION_FAIL] = 0
	Total_core_cache_stats_breakdown[LOCAL_ACC_R][HIT] = 0
	Total_core_cache_stats_breakdown[LOCAL_ACC_R][HIT_RESERVED] = 0
	Total_core_cache_stats_breakdown[LOCAL_ACC_R][MISS] = 0
	Total_core_cache_stats_breakdown[LOCAL_ACC_R][RESERVATION_FAIL] = 0
	Total_core_cache_stats_breakdown[CONST_ACC_R][HIT] = 79208
	Total_core_cache_stats_breakdown[CONST_ACC_R][HIT_RESERVED] = 0
	Total_core_cache_stats_breakdown[CONST_ACC_R][MISS] = 1792
	Total_core_cache_stats_breakdown[CONST_ACC_R][RESERVATION_FAIL] = 4886
	Total_core_cache_stats_breakdown[TEXTURE_ACC_R][HIT] = 0
	Total_core_cache_stats_breakdown[TEXTURE_ACC_R][HIT_RESERVED] = 0
	Total_core_cache_stats_breakdown[TEXTURE_ACC_R][MISS] = 0
	Total_core_cache_stats_breakdown[TEXTURE_ACC_R][RESERVATION_FAIL] = 0
	Total_core_cache_stats_breakdown[GLOBAL_ACC_W][HIT] = 0
	Total_core_cache_stats_breakdown[GLOBAL_ACC_W][HIT_RESERVED] = 0
	Total_core_cache_stats_breakdown[GLOBAL_ACC_W][MISS] = 0
	Total_core_cache_stats_breakdown[GLOBAL_ACC_W][RESERVATION_FAIL] = 0
	Total_core_cache_stats_breakdown[LOCAL_ACC_W][HIT] = 0
	Total_core_cache_stats_breakdown[LOCAL_ACC_W][HIT_RESERVED] = 0
	Total_core_cache_stats_breakdown[LOCAL_ACC_W][MISS] = 0
	Total_core_cache_stats_breakdown[LOCAL_ACC_W][RESERVATION_FAIL] = 0
	Total_core_cache_stats_breakdown[L1_WRBK_ACC][HIT] = 0
	Total_core_cache_stats_breakdown[L1_WRBK_ACC][HIT_RESERVED] = 0
	Total_core_cache_stats_breakdown[L1_WRBK_ACC][MISS] = 0
	Total_core_cache_stats_breakdown[L1_WRBK_ACC][RESERVATION_FAIL] = 0
	Total_core_cache_stats_breakdown[L2_WRBK_ACC][HIT] = 0
	Total_core_cache_stats_breakdown[L2_WRBK_ACC][HIT_RESERVED] = 0
	Total_core_cache_stats_breakdown[L2_WRBK_ACC][MISS] = 0
	Total_core_cache_stats_breakdown[L2_WRBK_ACC][RESERVATION_FAIL] = 0
	Total_core_cache_stats_breakdown[INST_ACC_R][HIT] = 888050
	Total_core_cache_stats_breakdown[INST_ACC_R][HIT_RESERVED] = 0
	Total_core_cache_stats_breakdown[INST_ACC_R][MISS] = 6336
	Total_core_cache_stats_breakdown[INST_ACC_R][RESERVATION_FAIL] = 54635
	Total_core_cache_stats_breakdown[L1_WR_ALLOC_R][HIT] = 0
	Total_core_cache_stats_breakdown[L1_WR_ALLOC_R][HIT_RESERVED] = 0
	Total_core_cache_stats_breakdown[L1_WR_ALLOC_R][MISS] = 0
	Total_core_cache_stats_breakdown[L1_WR_ALLOC_R][RESERVATION_FAIL] = 0
	Total_core_cache_stats_breakdown[L2_WR_ALLOC_R][HIT] = 0
[...]
F:  2986617----T:  2989222 	 St: c0304000 Sz: 4096 	 Sm: 0 	 T: memcpy_h2d(1.758947)
F:  2989222----T:  2991827 	 St: c0305000 Sz: 4096 	 Sm: 0 	 T: memcpy_h2d(1.758947)
F:  2991827----T:  2994432 	 St: c05e6000 Sz: 4096 	 Sm: 0 	 T: memcpy_h2d(1.758947)
F:  2994432----T:  2997037 	 St: c053e000 Sz: 4096 	 Sm: 0 	 T: memcpy_h2d(1.758947)
F:  2997037----T:  2999642 	 St: c0540000 Sz: 4096 	 Sm: 0 	 T: memcpy_h2d(1.758947)
F:  2999642----T:  3002247 	 St: c01c9000 Sz: 4096 	 Sm: 0 	 T: memcpy_h2d(1.758947)
F:  3002247----T:  3004852 	 St: c032f000 Sz: 4096 	 Sm: 0 	 T: memcpy_h2d(1.758947)
F:  3004852----T:  3007457 	 St: c06ab000 Sz: 4096 	 Sm: 0 	 T: memcpy_h2d(1.758947)
F:  3007457----T:  3010062 	 St: c0541000 Sz: 4096 	 Sm: 0 	 T: memcpy_h2d(1.758947)
F:  3010062----T:  3012667 	 St: c032b000 Sz: 4096 	 Sm: 0 	 T: memcpy_h2d(1.758947)
F:  3012667----T:  3015272 	 St: c0306000 Sz: 4096 	 Sm: 0 	 T: memcpy_h2d(1.758947)
F:  3015272----T:  3017877 	 St: c0307000 Sz: 4096 	 Sm: 0 	 T: memcpy_h2d(1.758947)
F:  3017877----T:  3020482 	 St: c0309000 Sz: 4096 	 Sm: 0 	 T: memcpy_h2d(1.758947)
F:  3020482----T:  3023087 	 St: c0543000 Sz: 4096 	 Sm: 0 	 T: memcpy_h2d(1.758947)
F:  3023087----T:  3025692 	 St: c0381000 Sz: 4096 	 Sm: 0 	 T: memcpy_h2d(1.758947)
F:  3025692----T:  3028297 	 St: c0335000 Sz: 4096 	 Sm: 0 	 T: memcpy_h2d(1.758947)
F:  3028297----T:  3030902 	 St: c0673000 Sz: 4096 	 Sm: 0 	 T: memcpy_h2d(1.758947)
F:  3030902----T:  3033507 	 St: c0546000 Sz: 4096 	 Sm: 0 	 T: memcpy_h2d(1.758947)
F:  3033507----T:  3036112 	 St: c019f000 Sz: 4096 	 Sm: 0 	 T: memcpy_h2d(1.758947)
F:  3036112----T:  3038717 	 St: c0547000 Sz: 4096 	 Sm: 0 	 T: memcpy_h2d(1.758947)
F:  3038717----T:  3041322 	 St: c038f000 Sz: 4096 	 Sm: 0 	 T: memcpy_h2d(1.758947)
F:  3041322----T:  3043927 	 St: c0548000 Sz: 4096 	 Sm: 0 	 T: memcpy_h2d(1.758947)
F:  3043927----T:  3046532 	 St: c030b000 Sz: 4096 	 Sm: 0 	 T: memcpy_h2d(1.758947)
F:  3046532----T:  3049137 	 St: c0027000 Sz: 4096 	 Sm: 0 	 T: memcpy_h2d(1.758947)
F:  3049137----T:  3051742 	 St: c054a000 Sz: 4096 	 Sm: 0 	 T: memcpy_h2d(1.758947)
F:  3051742----T:  3054347 	 St: c0339000 Sz: 4096 	 Sm: 0 	 T: memcpy_h2d(1.758947)
F:  3054347----T:  3056952 	 St: c01b8000 Sz: 4096 	 Sm: 0 	 T: memcpy_h2d(1.758947)
F:  3056952----T:  3059557 	 St: c054b000 Sz: 4096 	 Sm: 0 	 T: memcpy_h2d(1.758947)
F:  3059557----T:  3062162 	 St: c030e000 Sz: 4096 	 Sm: 0 	 T: memcpy_h2d(1.758947)
F:  3062162----T:  3064767 	 St: c0310000 Sz: 4096 	 Sm: 0 	 T: memcpy_h2d(1.758947)
F:  3064767----T:  3067372 	 St: c0311000 Sz: 4096 	 Sm: 0 	 T: memcpy_h2d(1.758947)
F:  3067372----T:  3069977 	 St: c002c000 Sz: 4096 	 Sm: 0 	 T: memcpy_h2d(1.758947)
F:  3069977----T:  3072582 	 St: c054c000 Sz: 4096 	 Sm: 0 	 T: memcpy_h2d(1.758947)
F:  3072582----T:  3075187 	 St: c020c000 Sz: 4096 	 Sm: 0 	 T: memcpy_h2d(1.758947)
F:  3075187----T:  3077792 	 St: c0314000 Sz: 4096 	 Sm: 0 	 T: memcpy_h2d(1.758947)
F:  3077792----T:  3080397 	 St: c0597000 Sz: 4096 	 Sm: 0 	 T: memcpy_h2d(1.758947)
F:  3080397----T:  3083002 	 St: c054d000 Sz: 4096 	 Sm: 0 	 T: memcpy_h2d(1.758947)
F:  3083002----T:  3085607 	 St: c0678000 Sz: 4096 	 Sm: 0 	 T: memcpy_h2d(1.758947)
F:  3085607----T:  3088212 	 St: c054e000 Sz: 4096 	 Sm: 0 	 T: memcpy_h2d(1.758947)
F:  3088212----T:  3090817 	 St: c054f000 Sz: 4096 	 Sm: 0 	 T: memcpy_h2d(1.758947)
F:  3090817----T:  3093422 	 St: c0551000 Sz: 4096 	 Sm: 0 	 T: memcpy_h2d(1.758947)
F:  3093422----T:  3096027 	 St: c0342000 Sz: 4096 	 Sm: 0 	 T: memcpy_h2d(1.758947)
F:  3096027----T:  3098632 	 St: c004d000 Sz: 4096 	 Sm: 0 	 T: memcpy_h2d(1.758947)
F:  3098632----T:  3101237 	 St: c0553000 Sz: 4096 	 Sm: 0 	 T: memcpy_h2d(1.758947)
F:  3101237----T:  3103842 	 St: c0319000 Sz: 4096 	 Sm: 0 	 T: memcpy_h2d(1.758947)
F:  3103842----T:  3106447 	 St: c0424000 Sz: 4096 	 Sm: 0 	 T: memcpy_h2d(1.758947)
F:  3106447----T:  3109052 	 St: c031a000 Sz: 4096 	 Sm: 0 	 T: memcpy_h2d(1.758947)
F:  3109052----T:  3111657 	 St: c0604000 Sz: 4096 	 Sm: 0 	 T: memcpy_h2d(1.758947)
F:  3111657----T:  3114262 	 St: c031b000 Sz: 4096 	 Sm: 0 	 T: memcpy_h2d(1.758947)
F:  3114262----T:  3116867 	 St: c0554000 Sz: 4096 	 Sm: 0 	 T: memcpy_h2d(1.758947)
F:  3116867----T:  3119472 	 St: c0555000 Sz: 4096 	 Sm: 0 	 T: memcpy_h2d(1.758947)
F:  3119472----T:  3122077 	 St: c0689000 Sz: 4096 	 Sm: 0 	 T: memcpy_h2d(1.758947)
F:  3122077----T:  3124682 	 St: c031d000 Sz: 4096 	 Sm: 0 	 T: memcpy_h2d(1.758947)
F:  3124682----T:  3127287 	 St: c0220000 Sz: 4096 	 Sm: 0 	 T: memcpy_h2d(1.758947)
F:  3127287----T:  3129892 	 St: c0556000 Sz: 4096 	 Sm: 0 	 T: memcpy_h2d(1.758947)
F:  3129892----T:  3132497 	 St: c0559000 Sz: 4096 	 Sm: 0 	 T: memcpy_h2d(1.758947)
F:  3132497----T:  3135102 	 St: c055a000 Sz: 4096 	 Sm: 0 	 T: memcpy_h2d(1.758947)
F:  3135102----T:  3137707 	 St: c0321000 Sz: 4096 	 Sm: 0 	 T: memcpy_h2d(1.758947)
F:  3137707----T:  3140312 	 St: c034b000 Sz: 4096 	 Sm: 0 	 T: memcpy_h2d(1.758947)
F:  3140312----T:  3142917 	 St: c0322000 Sz: 4096 	 Sm: 0 	 T: memcpy_h2d(1.758947)
F:  3142917----T:  3145522 	 St: c055c000 Sz: 4096 	 Sm: 0 	 T: memcpy_h2d(1.758947)
F:  3145522----T:  3148127 	 St: c055d000 Sz: 4096 	 Sm: 0 	 T: memcpy_h2d(1.758947)
F:  3148127----T:  3150732 	 St: c055e000 Sz: 4096 	 Sm: 0 	 T: memcpy_h2d(1.758947)
F:  3150732----T:  3153337 	 St: c0635000 Sz: 4096 	 Sm: 0 	 T: memcpy_h2d(1.758947)
F:  3153337----T:  3155942 	 St: c055f000 Sz: 4096 	 Sm: 0 	 T: memcpy_h2d(1.758947)
F:  3155942----T:  3158547 	 St: c0560000 Sz: 4096 	 Sm: 0 	 T: memcpy_h2d(1.758947)
F:  3158547----T:  3161152 	 St: c01a4000 Sz: 4096 	 Sm: 0 	 T: memcpy_h2d(1.758947)
F:  3161152----T:  3163757 	 St: c0561000 Sz: 4096 	 Sm: 0 	 T: memcpy_h2d(1.758947)
F:  3163757----T:  3166362 	 St: c0353000 Sz: 4096 	 Sm: 0 	 T: memcpy_h2d(1.758947)
F:  3166362----T:  3168967 	 St: c0354000 Sz: 4096 	 Sm: 0 	 T: memcpy_h2d(1.758947)
F:  3168967----T:  3171572 	 St: c0565000 Sz: 4096 	 Sm: 0 	 T: memcpy_h2d(1.758947)
F:  3171572----T:  3174177 	 St: c0603000 Sz: 4096 	 Sm: 0 	 T: memcpy_h2d(1.758947)
F:  3174177----T:  3176782 	 St: c0566000 Sz: 4096 	 Sm: 0 	 T: memcpy_h2d(1.758947)
F:  3176782----T:  3179387 	 St: c0015000 Sz: 4096 	 Sm: 0 	 T: memcpy_h2d(1.758947)
F:  3179387----T:  3181992 	 St: c0357000 Sz: 4096 	 Sm: 0 	 T: memcpy_h2d(1.758947)
F:  3181992----T:  3184597 	 St: c0358000 Sz: 4096 	 Sm: 0 	 T: memcpy_h2d(1.758947)
F:  3184597----T:  3187202 	 St: c032c000 Sz: 4096 	 Sm: 0 	 T: memcpy_h2d(1.758947)
F:  3187202----T:  3189807 	 St: c0359000 Sz: 4096 	 Sm: 0 	 T: memcpy_h2d(1.758947)
F:  3189807----T:  3192412 	 St: c035a000 Sz: 4096 	 Sm: 0 	 T: memcpy_h2d(1.758947)
F:  3192412----T:  3195017 	 St: c056b000 Sz: 4096 	 Sm: 0 	 T: memcpy_h2d(1.758947)
F:  3195017----T:  3197622 	 St: c005b000 Sz: 4096 	 Sm: 0 	 T: memcpy_h2d(1.758947)
F:  3197622----T:  3200227 	 St: c032e000 Sz: 4096 	 Sm: 0 	 T: memcpy_h2d(1.758947)
F:  3200227----T:  3202832 	 St: c056c000 Sz: 4096 	 Sm: 0 	 T: memcpy_h2d(1.758947)
F:  3202832----T:  3205437 	 St: c035d000 Sz: 4096 	 Sm: 0 	 T: memcpy_h2d(1.758947)
F:  3205437----T:  3208042 	 St: c0331000 Sz: 4096 	 Sm: 0 	 T: memcpy_h2d(1.758947)
F:  3208042----T:  3210647 	 St: c056e000 Sz: 4096 	 Sm: 0 	 T: memcpy_h2d(1.758947)
F:  3210647----T:  3213252 	 St: c0570000 Sz: 4096 	 Sm: 0 	 T: memcpy_h2d(1.758947)
F:  3213252----T:  3215857 	 St: c0572000 Sz: 4096 	 Sm: 0 	 T: memcpy_h2d(1.758947)
F:  3215857----T:  3218462 	 St: c0573000 Sz: 4096 	 Sm: 0 	 T: memcpy_h2d(1.758947)
F:  3218462----T:  3221067 	 St: c01b9000 Sz: 4096 	 Sm: 0 	 T: memcpy_h2d(1.758947)
F:  3221067----T:  3223672 	 St: c0333000 Sz: 4096 	 Sm: 0 	 T: memcpy_h2d(1.758947)
F:  3223672----T:  3226277 	 St: c0574000 Sz: 4096 	 Sm: 0 	 T: memcpy_h2d(1.758947)
F:  3226277----T:  3228882 	 St: c0336000 Sz: 4096 	 Sm: 0 	 T: memcpy_h2d(1.758947)
F:  3228882----T:  3231487 	 St: c0575000 Sz: 4096 	 Sm: 0 	 T: memcpy_h2d(1.758947)
F:  3231487----T:  3234092 	 St: c0338000 Sz: 4096 	 Sm: 0 	 T: memcpy_h2d(1.758947)
F:  3234092----T:  3236697 	 St: c0405000 Sz: 4096 	 Sm: 0 	 T: memcpy_h2d(1.758947)
F:  3236697----T:  3239302 	 St: c0576000 Sz: 4096 	 Sm: 0 	 T: memcpy_h2d(1.758947)
F:  3239302----T:  3241907 	 St: c0367000 Sz: 4096 	 Sm: 0 	 T: memcpy_h2d(1.758947)
F:  3241907----T:  3244512 	 St: c024d000 Sz: 4096 	 Sm: 0 	 T: memcpy_h2d(1.758947)
F:  3244512----T:  3247117 	 St: c0578000 Sz: 4096 	 Sm: 0 	 T: memcpy_h2d(1.758947)
F:  3247117----T:  3249722 	 St: c01c2000 Sz: 4096 	 Sm: 0 	 T: memcpy_h2d(1.758947)
F:  3249722----T:  3252327 	 St: c033b000 Sz: 4096 	 Sm: 0 	 T: memcpy_h2d(1.758947)
F:  3252327----T:  3254932 	 St: c060a000 Sz: 4096 	 Sm: 0 	 T: memcpy_h2d(1.758947)
F:  3254932----T:  3257537 	 St: c0579000 Sz: 4096 	 Sm: 0 	 T: memcpy_h2d(1.758947)
F:  3257537----T:  3260142 	 St: c057a000 Sz: 4096 	 Sm: 0 	 T: memcpy_h2d(1.758947)
F:  3260142----T:  3262747 	 St: c057b000 Sz: 4096 	 Sm: 0 	 T: memcpy_h2d(1.758947)
F:  3262747----T:  3265352 	 St: c036c000 Sz: 4096 	 Sm: 0 	 T: memcpy_h2d(1.758947)
F:  3265352----T:  3267957 	 St: c05e5000 Sz: 4096 	 Sm: 0 	 T: memcpy_h2d(1.758947)
F:  3267957----T:  3270562 	 St: c057d000 Sz: 4096 	 Sm: 0 	 T: memcpy_h2d(1.758947)
F:  3270562----T:  3273167 	 St: c057f000 Sz: 4096 	 Sm: 0 	 T: memcpy_h2d(1.758947)
F:  3273167----T:  3275772 	 St: c023d000 Sz: 4096 	 Sm: 0 	 T: memcpy_h2d(1.758947)
F:  3275772----T:  3278377 	 St: c036e000 Sz: 4096 	 Sm: 0 	 T: memcpy_h2d(1.758947)
F:  3278377----T:  3280982 	 St: c033e000 Sz: 4096 	 Sm: 0 	 T: memcpy_h2d(1.758947)
F:  3280982----T:  3283587 	 St: c0356000 Sz: 4096 	 Sm: 0 	 T: memcpy_h2d(1.758947)
F:  3283587----T:  3286192 	 St: c0341000 Sz: 4096 	 Sm: 0 	 T: memcpy_h2d(1.758947)
F:  3286192----T:  3288797 	 St: c0580000 Sz: 4096 	 Sm: 0 	 T: memcpy_h2d(1.758947)
F:  3288797----T:  3291402 	 St: c0343000 Sz: 4096 	 Sm: 0 	 T: memcpy_h2d(1.758947)
F:  3291402----T:  3294007 	 St: c05c2000 Sz: 4096 	 Sm: 0 	 T: memcpy_h2d(1.758947)
F:  3294007----T:  3296612 	 St: c0371000 Sz: 4096 	 Sm: 0 	 T: memcpy_h2d(1.758947)
F:  3296612----T:  3299217 	 St: c01aa000 Sz: 4096 	 Sm: 0 	 T: memcpy_h2d(1.758947)
F:  3299217----T:  3301822 	 St: c0582000 Sz: 4096 	 Sm: 0 	 T: memcpy_h2d(1.758947)
F:  3301822----T:  3304427 	 St: c03d6000 Sz: 4096 	 Sm: 0 	 T: memcpy_h2d(1.758947)
F:  3304427----T:  3307032 	 St: c0583000 Sz: 4096 	 Sm: 0 	 T: memcpy_h2d(1.758947)
F:  3307032----T:  3309637 	 St: c0344000 Sz: 4096 	 Sm: 0 	 T: memcpy_h2d(1.758947)
F:  3309637----T:  3312242 	 St: c0584000 Sz: 4096 	 Sm: 0 	 T: memcpy_h2d(1.758947)
F:  3312242----T:  3314847 	 St: c0682000 Sz: 4096 	 Sm: 0 	 T: memcpy_h2d(1.758947)
F:  3314847----T:  3317452 	 St: c0375000 Sz: 4096 	 Sm: 0 	 T: memcpy_h2d(1.758947)
F:  3317452----T:  3320057 	 St: c05e8000 Sz: 4096 	 Sm: 0 	 T: memcpy_h2d(1.758947)
F:  3320057----T:  3322662 	 St: c0586000 Sz: 4096 	 Sm: 0 	 T: memcpy_h2d(1.758947)
F:  3322662----T:  3325267 	 St: c0349000 Sz: 4096 	 Sm: 0 	 T: memcpy_h2d(1.758947)
F:  3325267----T:  3327872 	 St: c06b1000 Sz: 4096 	 Sm: 0 	 T: memcpy_h2d(1.758947)
F:  3327872----T:  3330477 	 St: c034a000 Sz: 4096 	 Sm: 0 	 T: memcpy_h2d(1.758947)
F:  3330477----T:  3333082 	 St: c0587000 Sz: 4096 	 Sm: 0 	 T: memcpy_h2d(1.758947)
F:  3333082----T:  3335687 	 St: c05bf000 Sz: 4096 	 Sm: 0 	 T: memcpy_h2d(1.758947)
F:  3335687----T:  3338292 	 St: c0588000 Sz: 4096 	 Sm: 0 	 T: memcpy_h2d(1.758947)
F:  3338292----T:  3340897 	 St: c036a000 Sz: 4096 	 Sm: 0 	 T: memcpy_h2d(1.758947)
F:  3340897----T:  3343502 	 St: c0589000 Sz: 4096 	 Sm: 0 	 T: memcpy_h2d(1.758947)
F:  3343502----T:  3346107 	 St: c034d000 Sz: 4096 	 Sm: 0 	 T: memcpy_h2d(1.758947)
F:  3346107----T:  3348712 	 St: c034c000 Sz: 4096 	 Sm: 0 	 T: memcpy_h2d(1.758947)
F:  3348712----T:  3351317 	 St: c06ba000 Sz: 4096 	 Sm: 0 	 T: memcpy_h2d(1.758947)
F:  3351317----T:  3353922 	 St: c058a000 Sz: 4096 	 Sm: 0 	 T: memcpy_h2d(1.758947)
F:  3353922----T:  3356527 	 St: c034f000 Sz: 4096 	 Sm: 0 	 T: memcpy_h2d(1.758947)
F:  3356527----T:  3359132 	 St: c0350000 Sz: 4096 	 Sm: 0 	 T: memcpy_h2d(1.758947)
F:  3359132----T:  3361737 	 St: c0351000 Sz: 4096 	 Sm: 0 	 T: memcpy_h2d(1.758947)
F:  3361737----T:  3364342 	 St: c058b000 Sz: 4096 	 Sm: 0 	 T: memcpy_h2d(1.758947)
F:  3364342----T:  3366947 	 St: c0041000 Sz: 4096 	 Sm: 0 	 T: memcpy_h2d(1.758947)
F:  3366947----T:  3369552 	 St: c058c000 Sz: 4096 	 Sm: 0 	 T: memcpy_h2d(1.758947)
F:  3369552----T:  3372157 	 St: c058d000 Sz: 4096 	 Sm: 0 	 T: memcpy_h2d(1.758947)
F:  3372157----T:  3374762 	 St: c03af000 Sz: 4096 	 Sm: 0 	 T: memcpy_h2d(1.758947)
F:  3374762----T:  3377367 	 St: c037e000 Sz: 4096 	 Sm: 0 	 T: memcpy_h2d(1.758947)
F:  3377367----T:  3379972 	 St: c0203000 Sz: 4096 	 Sm: 0 	 T: memcpy_h2d(1.758947)
F:  3379972----T:  3382577 	 St: c058f000 Sz: 4096 	 Sm: 0 	 T: memcpy_h2d(1.758947)
F:  3382577----T:  3385182 	 St: c0590000 Sz: 4096 	 Sm: 0 	 T: memcpy_h2d(1.758947)
F:  3385182----T:  3387787 	 St: c0592000 Sz: 4096 	 Sm: 0 	 T: memcpy_h2d(1.758947)
F:  3387787----T:  3390392 	 St: c0593000 Sz: 4096 	 Sm: 0 	 T: memcpy_h2d(1.758947)
F:  3390392----T:  3392997 	 St: c0687000 Sz: 4096 	 Sm: 0 	 T: memcpy_h2d(1.758947)
F:  3392997----T:  3395602 	 St: c035b000 Sz: 4096 	 Sm: 0 	 T: memcpy_h2d(1.758947)
F:  3395602----T:  3398207 	 St: c0384000 Sz: 4096 	 Sm: 0 	 T: memcpy_h2d(1.758947)
F:  3398207----T:  3400812 	 St: c0385000 Sz: 4096 	 Sm: 0 	 T: memcpy_h2d(1.758947)
F:  3400812----T:  3403417 	 St: c035e000 Sz: 4096 	 Sm: 0 	 T: memcpy_h2d(1.758947)
F:  3403417----T:  3406022 	 St: c0598000 Sz: 4096 	 Sm: 0 	 T: memcpy_h2d(1.758947)
F:  3406022----T:  3408627 	 St: c0648000 Sz: 4096 	 Sm: 0 	 T: memcpy_h2d(1.758947)
F:  3408627----T:  3411232 	 St: c0389000 Sz: 4096 	 Sm: 0 	 T: memcpy_h2d(1.758947)
F:  3411232----T:  3413837 	 St: c03e0000 Sz: 4096 	 Sm: 0 	 T: memcpy_h2d(1.758947)
F:  3413837----T:  3416442 	 St: c0360000 Sz: 4096 	 Sm: 0 	 T: memcpy_h2d(1.758947)
F:  3416442----T:  3419047 	 St: c03fc000 Sz: 4096 	 Sm: 0 	 T: memcpy_h2d(1.758947)
F:  3419047----T:  3421652 	 St: c059a000 Sz: 4096 	 Sm: 0 	 T: memcpy_h2d(1.758947)
F:  3421652----T:  3424257 	 St: c0363000 Sz: 4096 	 Sm: 0 	 T: memcpy_h2d(1.758947)
F:  3424257----T:  3426862 	 St: c059b000 Sz: 4096 	 Sm: 0 	 T: memcpy_h2d(1.758947)
F:  3426862----T:  3429467 	 St: c059c000 Sz: 4096 	 Sm: 0 	 T: memcpy_h2d(1.758947)
F:  3429467----T:  3432072 	 St: c059d000 Sz: 4096 	 Sm: 0 	 T: memcpy_h2d(1.758947)
F:  3432072----T:  3434677 	 St: c059e000 Sz: 4096 	 Sm: 0 	 T: memcpy_h2d(1.758947)
F:  3434677----T:  3437282 	 St: c059f000 Sz: 4096 	 Sm: 0 	 T: memcpy_h2d(1.758947)
F:  3437282----T:  3439887 	 St: c0692000 Sz: 4096 	 Sm: 0 	 T: memcpy_h2d(1.758947)
F:  3439887----T:  3442492 	 St: c0390000 Sz: 4096 	 Sm: 0 	 T: memcpy_h2d(1.758947)
F:  3442492----T:  3445097 	 St: c05a1000 Sz: 4096 	 Sm: 0 	 T: memcpy_h2d(1.758947)
F:  3445097----T:  3447702 	 St: c0636000 Sz: 4096 	 Sm: 0 	 T: memcpy_h2d(1.758947)
F:  3447702----T:  3450307 	 St: c0368000 Sz: 4096 	 Sm: 0 	 T: memcpy_h2d(1.758947)
F:  3450307----T:  3452912 	 St: c0392000 Sz: 4096 	 Sm: 0 	 T: memcpy_h2d(1.758947)
F:  3452912----T:  3455517 	 St: c01be000 Sz: 4096 	 Sm: 0 	 T: memcpy_h2d(1.758947)
F:  3455517----T:  3458122 	 St: c0369000 Sz: 4096 	 Sm: 0 	 T: memcpy_h2d(1.758947)
F:  3458122----T:  3460727 	 St: c036b000 Sz: 4096 	 Sm: 0 	 T: memcpy_h2d(1.758947)
F:  3460727----T:  3463332 	 St: c05a3000 Sz: 4096 	 Sm: 0 	 T: memcpy_h2d(1.758947)
F:  3463332----T:  3465937 	 St: c0672000 Sz: 4096 	 Sm: 0 	 T: memcpy_h2d(1.758947)
F:  3465937----T:  3468542 	 St: c036d000 Sz: 4096 	 Sm: 0 	 T: memcpy_h2d(1.758947)
F:  3468542----T:  3471147 	 St: c05a4000 Sz: 4096 	 Sm: 0 	 T: memcpy_h2d(1.758947)
F:  3471147----T:  3473752 	 St: c05a5000 Sz: 4096 	 Sm: 0 	 T: memcpy_h2d(1.758947)
F:  3473752----T:  3476357 	 St: c06b3000 Sz: 4096 	 Sm: 0 	 T: memcpy_h2d(1.758947)
F:  3476357----T:  3478962 	 St: c05a6000 Sz: 4096 	 Sm: 0 	 T: memcpy_h2d(1.758947)
F:  3478962----T:  3481567 	 St: c05a7000 Sz: 4096 	 Sm: 0 	 T: memcpy_h2d(1.758947)
F:  3481567----T:  3484172 	 St: c0469000 Sz: 4096 	 Sm: 0 	 T: memcpy_h2d(1.758947)
F:  3484172----T:  3486777 	 St: c05a9000 Sz: 4096 	 Sm: 0 	 T: memcpy_h2d(1.758947)
F:  3486777----T:  3489382 	 St: c03b6000 Sz: 4096 	 Sm: 0 	 T: memcpy_h2d(1.758947)
F:  3489382----T:  3491987 	 St: c0370000 Sz: 4096 	 Sm: 0 	 T: memcpy_h2d(1.758947)
F:  3491987----T:  3494592 	 St: c05f7000 Sz: 4096 	 Sm: 0 	 T: memcpy_h2d(1.758947)
F:  3494592----T:  3497197 	 St: c05aa000 Sz: 4096 	 Sm: 0 	 T: memcpy_h2d(1.758947)
F:  3497197----T:  3499802 	 St: c0407000 Sz: 4096 	 Sm: 0 	 T: memcpy_h2d(1.758947)
F:  3499802----T:  3502407 	 St: c0373000 Sz: 4096 	 Sm: 0 	 T: memcpy_h2d(1.758947)
F:  3502407----T:  3505012 	 St: c069e000 Sz: 4096 	 Sm: 0 	 T: memcpy_h2d(1.758947)
F:  3505012----T:  3507617 	 St: c0374000 Sz: 4096 	 Sm: 0 	 T: memcpy_h2d(1.758947)
F:  3507617----T:  3510222 	 St: c0376000 Sz: 4096 	 Sm: 0 	 T: memcpy_h2d(1.758947)
F:  3510222----T:  3512827 	 St: c0377000 Sz: 4096 	 Sm: 0 	 T: memcpy_h2d(1.758947)
F:  3512827----T:  3515432 	 St: c0378000 Sz: 4096 	 Sm: 0 	 T: memcpy_h2d(1.758947)
F:  3515432----T:  3518037 	 St: c03dc000 Sz: 4096 	 Sm: 0 	 T: memcpy_h2d(1.758947)
F:  3518037----T:  3520642 	 St: c0379000 Sz: 4096 	 Sm: 0 	 T: memcpy_h2d(1.758947)
F:  3520642----T:  3523247 	 St: c037a000 Sz: 4096 	 Sm: 0 	 T: memcpy_h2d(1.758947)
F:  3523247----T:  3525852 	 St: c037c000 Sz: 4096 	 Sm: 0 	 T: memcpy_h2d(1.758947)
F:  3525852----T:  3528457 	 St: c037d000 Sz: 4096 	 Sm: 0 	 T: memcpy_h2d(1.758947)
F:  3528457----T:  3531062 	 St: c022f000 Sz: 4096 	 Sm: 0 	 T: memcpy_h2d(1.758947)
F:  3531062----T:  3533667 	 St: c037f000 Sz: 4096 	 Sm: 0 	 T: memcpy_h2d(1.758947)
F:  3533667----T:  3536272 	 St: c0380000 Sz: 4096 	 Sm: 0 	 T: memcpy_h2d(1.758947)
F:  3536272----T:  3538877 	 St: c0383000 Sz: 4096 	 Sm: 0 	 T: memcpy_h2d(1.758947)
F:  3538877----T:  3541482 	 St: c066b000 Sz: 4096 	 Sm: 0 	 T: memcpy_h2d(1.758947)
F:  3541482----T:  3544087 	 St: c038a000 Sz: 4096 	 Sm: 0 	 T: memcpy_h2d(1.758947)
F:  3544087----T:  3546692 	 St: c038b000 Sz: 4096 	 Sm: 0 	 T: memcpy_h2d(1.758947)
F:  3546692----T:  3549297 	 St: c01e1000 Sz: 4096 	 Sm: 0 	 T: memcpy_h2d(1.758947)
F:  3549297----T:  3551902 	 St: c038c000 Sz: 4096 	 Sm: 0 	 T: memcpy_h2d(1.758947)
F:  3551902----T:  3554507 	 St: c01e2000 Sz: 4096 	 Sm: 0 	 T: memcpy_h2d(1.758947)
F:  3554507----T:  3557112 	 St: c038d000 Sz: 4096 	 Sm: 0 	 T: memcpy_h2d(1.758947)
F:  3557112----T:  3559717 	 St: c0249000 Sz: 4096 	 Sm: 0 	 T: memcpy_h2d(1.758947)
F:  3559717----T:  3562322 	 St: c038e000 Sz: 4096 	 Sm: 0 	 T: memcpy_h2d(1.758947)
F:  3562322----T:  3564927 	 St: c0393000 Sz: 4096 	 Sm: 0 	 T: memcpy_h2d(1.758947)
F:  3564927----T:  3567532 	 St: c0394000 Sz: 4096 	 Sm: 0 	 T: memcpy_h2d(1.758947)
F:  3567532----T:  3570137 	 St: c0395000 Sz: 4096 	 Sm: 0 	 T: memcpy_h2d(1.758947)
F:  3570137----T:  3572742 	 St: c03d0000 Sz: 4096 	 Sm: 0 	 T: memcpy_h2d(1.758947)
F:  3572742----T:  3575347 	 St: c0397000 Sz: 4096 	 Sm: 0 	 T: memcpy_h2d(1.758947)
F:  3575347----T:  3577952 	 St: c0448000 Sz: 4096 	 Sm: 0 	 T: memcpy_h2d(1.758947)
F:  3577952----T:  3580557 	 St: c0399000 Sz: 4096 	 Sm: 0 	 T: memcpy_h2d(1.758947)
F:  3580557----T:  3583162 	 St: c039c000 Sz: 4096 	 Sm: 0 	 T: memcpy_h2d(1.758947)
Tot_prefetch_time: 0(cycle), 0.000000(us)
Tot_kernel_exec_time: 3121209(cycle), 2107.500977(us)
Tot_kernel_exec_time_and_fault_time: 52238574(cycle), 35272.503906(us)
Tot_memcpy_h2d_time: 3115580(cycle), 2103.700195(us)
Tot_memcpy_d2h_time: 0(cycle), 0.000000(us)
Tot_memcpy_time: 3115580(cycle), 2103.700195(us)
Tot_devicesync_time: 16055(cycle), 10.840649(us)
Tot_writeback_time: 0(cycle), 0.000000(us)
Tot_rdma_time: 0(cycle), 0.000000(us)
Tot_memcpy_d2h_sync_wb_time: 16055(cycle), 10.840649(us)
GPGPU-Sim: *** exit detected ***
