

        *** GPGPU-Sim Simulator Version 3.2.2  [build gpgpu-sim_git-commit-3860d9b353b66e89e1a9ca14f6569fffcf247a15_modified_0] ***


GPGPU-Sim PTX: simulation mode 0 (can change with PTX_SIM_MODE_FUNC environment variable:
               1=functional simulation only, 0=detailed performance simulator)
GPGPU-Sim: Configuration options:

-network_mode                           1 # Interconnection network mode
-inter_config_file   config_fermi_islip.icnt # Interconnection network config file
-gpgpu_ptx_use_cuobjdump                    1 # Use cuobjdump to extract ptx and sass from binaries
-gpgpu_experimental_lib_support                    0 # Try to extract code from cuda libraries [Broken because of unknown cudaGetExportTable]
-gpgpu_ptx_convert_to_ptxplus                    0 # Convert SASS (native ISA) to ptxplus and run ptxplus
-gpgpu_ptx_force_max_capability                   20 # Force maximum compute capability
-gpgpu_ptx_inst_debug_to_file                    0 # Dump executed instructions' debug information to file
-gpgpu_ptx_inst_debug_file       inst_debug.txt # Executed instructions' debug output file
-gpgpu_ptx_inst_debug_thread_uid                    1 # Thread UID for executed instructions' debug output
-gpgpu_simd_model                       1 # 1 = post-dominator
-gpgpu_shader_core_pipeline              2048:32 # shader core pipeline config, i.e., {<nthread>:<warpsize>}
-gpgpu_tex_cache:l1  16:128:24,L:R:m:N:L,F:128:4,128:2 # per-shader L1 texture cache  (READ-ONLY) config  {<nsets>:<bsize>:<assoc>,<rep>:<wr>:<alloc>:<wr_alloc>,<mshr>:<N>:<merge>,<mq>:<rf>}
-gpgpu_const_cache:l1 128:64:2,L:R:f:N:L,A:2:64,4 # per-shader L1 constant memory cache  (READ-ONLY) config  {<nsets>:<bsize>:<assoc>,<rep>:<wr>:<alloc>:<wr_alloc>,<mshr>:<N>:<merge>,<mq>} 
-gpgpu_cache:il1     8:128:4,L:R:f:N:L,A:2:48,4 # shader L1 instruction cache config  {<nsets>:<bsize>:<assoc>,<rep>:<wr>:<alloc>:<wr_alloc>,<mshr>:<N>:<merge>,<mq>} 
-gpgpu_cache:dl1     64:128:6,L:L:m:N:H,A:128:8,8 # per-shader L1 data cache config  {<nsets>:<bsize>:<assoc>,<rep>:<wr>:<alloc>:<wr_alloc>,<mshr>:<N>:<merge>,<mq> | none}
-gpgpu_cache:dl1PrefL1                 none # per-shader L1 data cache config  {<nsets>:<bsize>:<assoc>,<rep>:<wr>:<alloc>:<wr_alloc>,<mshr>:<N>:<merge>,<mq> | none}
-gpgpu_cache:dl1PrefShared                 none # per-shader L1 data cache config  {<nsets>:<bsize>:<assoc>,<rep>:<wr>:<alloc>:<wr_alloc>,<mshr>:<N>:<merge>,<mq> | none}
-gmem_skip_L1D                          1 # global memory access skip L1D cache (implements -Xptxas -dlcm=cg, default=no skip)
-gpgpu_perfect_mem                      0 # enable perfect memory mode (no cache miss)
-n_regfile_gating_group                    4 # group of lanes that should be read/written together)
-gpgpu_clock_gated_reg_file                    0 # enable clock gated reg file for power calculations
-gpgpu_clock_gated_lanes                    0 # enable clock gated lanes for power calculations
-gpgpu_shader_registers                65536 # Number of registers per shader core. Limits number of concurrent CTAs. (default 8192)
-gpgpu_shader_cta                      32 # Maximum number of concurrent CTAs in shader (default 8)
-gpgpu_num_cta_barriers                   16 # Maximum number of named barriers per CTA (default 16)
-gpgpu_n_clusters                      28 # number of processing clusters
-gpgpu_n_cores_per_cluster                    1 # number of simd cores per cluster
-gpgpu_n_cluster_ejection_buffer_size                    8 # number of packets in ejection buffer
-gpgpu_n_ldst_response_buffer_size                    2 # number of response packets in ld/st unit ejection buffer
-gpgpu_shmem_size                   16384 # Size of shared memory per shader core (default 16kB)
-gpgpu_shmem_size                   98304 # Size of shared memory per shader core (default 16kB)
-gpgpu_shmem_size_PrefL1                16384 # Size of shared memory per shader core (default 16kB)
-gpgpu_shmem_size_PrefShared                16384 # Size of shared memory per shader core (default 16kB)
-gpgpu_shmem_num_banks                   32 # Number of banks in the shared memory in each shader core (default 16)
-gpgpu_shmem_limited_broadcast                    0 # Limit shared memory to do one broadcast per cycle (default on)
-gpgpu_shmem_warp_parts                    1 # Number of portions a warp is divided into for shared memory bank conflict check 
-gpgpu_warpdistro_shader                   -1 # Specify which shader core to collect the warp size distribution from
-gpgpu_warp_issue_shader                    0 # Specify which shader core to collect the warp issue distribution from
-gpgpu_local_mem_map                    1 # Mapping from local memory space address to simulated GPU physical address space (default = enabled)
-gpgpu_num_reg_banks                   32 # Number of register banks (default = 8)
-gpgpu_reg_bank_use_warp_id                    0 # Use warp ID in mapping registers to banks (default = off)
-gpgpu_operand_collector_num_units_sp                   20 # number of collector units (default = 4)
-gpgpu_operand_collector_num_units_sfu                    4 # number of collector units (default = 4)
-gpgpu_operand_collector_num_units_mem                    8 # number of collector units (default = 2)
-gpgpu_operand_collector_num_units_gen                    0 # number of collector units (default = 0)
-gpgpu_operand_collector_num_in_ports_sp                    4 # number of collector unit in ports (default = 1)
-gpgpu_operand_collector_num_in_ports_sfu                    1 # number of collector unit in ports (default = 1)
-gpgpu_operand_collector_num_in_ports_mem                    1 # number of collector unit in ports (default = 1)
-gpgpu_operand_collector_num_in_ports_gen                    0 # number of collector unit in ports (default = 0)
-gpgpu_operand_collector_num_out_ports_sp                    4 # number of collector unit in ports (default = 1)
-gpgpu_operand_collector_num_out_ports_sfu                    1 # number of collector unit in ports (default = 1)
-gpgpu_operand_collector_num_out_ports_mem                    1 # number of collector unit in ports (default = 1)
-gpgpu_operand_collector_num_out_ports_gen                    0 # number of collector unit in ports (default = 0)
-gpgpu_coalesce_arch                   13 # Coalescing arch (default = 13, anything else is off for now)
-gpgpu_num_sched_per_core                    2 # Number of warp schedulers per core
-gpgpu_max_insn_issue_per_warp                    2 # Max number of instructions that can be issued per warp in one cycle by scheduler
-gpgpu_simt_core_sim_order                    1 # Select the simulation order of cores in a cluster (0=Fix, 1=Round-Robin)
-gpgpu_pipeline_widths        4,1,1,4,1,1,6 # Pipeline widths ID_OC_SP,ID_OC_SFU,ID_OC_MEM,OC_EX_SP,OC_EX_SFU,OC_EX_MEM,EX_WB
-gpgpu_num_sp_units                     4 # Number of SP units (default=1)
-gpgpu_num_sfu_units                    1 # Number of SF units (default=1)
-gpgpu_num_mem_units                    1 # Number if ldst units (default=1) WARNING: not hooked up to anything
-gpgpu_scheduler                      gto # Scheduler configuration: < lrr | gto | two_level_active > If two_level_active:<num_active_warps>:<inner_prioritization>:<outer_prioritization>For complete list of prioritization values see shader.h enum scheduler_prioritization_typeDefault: gto
-gpgpu_concurrent_kernel_sm                    0 # Support concurrent kernels on a SM (default = disabled)
-tlb_size                            4096 # Number of tlb entries per SM.
-gpgpu_dram_scheduler                    1 # 0 = fifo, 1 = FR-FCFS (defaul)
-gpgpu_dram_partition_queues              8:8:8:8 # i2$:$2d:d2$:$2i
-l2_ideal                               0 # Use a ideal L2 cache that always hit
-gpgpu_cache:dl2     64:128:16,L:B:m:W:L,A:1024:1024,4:0,32 # unified banked L2 data cache config  {<nsets>:<bsize>:<assoc>,<rep>:<wr>:<alloc>:<wr_alloc>,<mshr>:<N>:<merge>,<mq>}
-gpgpu_cache:dl2_texture_only                    0 # L2 cache used for texture only
-gpgpu_n_mem                           11 # number of memory modules (e.g. memory controllers) in gpu
-gpgpu_n_sub_partition_per_mchannel                    2 # number of memory subpartition in each memory module
-gpgpu_n_mem_per_ctrlr                    1 # number of memory chips per memory controller
-gpgpu_memlatency_stat                   14 # track and display latency statistics 0x2 enables MC, 0x4 enables queue logs
-gpgpu_frfcfs_dram_sched_queue_size                   64 # 0 = unlimited (default); # entries per chip
-gpgpu_dram_return_queue_size                  116 # 0 = unlimited (default); # entries per chip
-gpgpu_dram_buswidth                    4 # default = 4 bytes (8 bytes per cycle at DDR)
-gpgpu_dram_burst_length                    8 # Burst length of each DRAM request (default = 4 data bus cycle)
-dram_data_command_freq_ratio                    4 # Frequency ratio between DRAM data bus and command bus (default = 2 times, i.e. DDR)
-gpgpu_dram_timing_opt nbk=16:CCD=2:RRD=6:RCD=12:RAS=28:RP=12:RC=40: CL=12:WL=4:CDLR=5:WR=12:nbkgrp=1:CCDL=0:RTPL=0 # DRAM timing parameters = {nbk:tCCD:tRRD:tRCD:tRAS:tRP:tRC:CL:WL:tCDLR:tWR:nbkgrp:tCCDL:tRTPL}
-rop_latency                          120 # ROP queue latency (default 85)
-dram_latency                         100 # DRAM latency (default 30)
-gpgpu_mem_addr_mapping dramid@8;00000000.00000000.00000000.00000000.0000RRRR.RRRRRRRR.RBBBCCCC.BCCSSSSS # mapping memory address to dram model {dramid@<start bit>;<memory address map>}
-gpgpu_mem_addr_test                    0 # run sweep test to check address mapping for aliased address
-gpgpu_mem_address_mask                    1 # 0 = old addressing mask, 1 = new addressing mask, 2 = new add. mask + flipped bank sel and chip sel bits
-gpuwattch_xml_file  gpuwattch_geforcegtx1080ti.xml # GPUWattch XML file
-power_simulation_enabled                    1 # Turn on power simulator (1=On, 0=Off)
-power_per_cycle_dump                    0 # Dump detailed power output each cycle
-power_trace_enabled                    0 # produce a file for the power trace (1=On, 0=Off)
-power_trace_zlevel                     6 # Compression level of the power trace output log (0=no comp, 9=highest)
-steady_power_levels_enabled                    0 # produce a file for the steady power levels (1=On, 0=Off)
-steady_state_definition                  8:4 # allowed deviation:number of samples
-gpgpu_max_cycle                        0 # terminates gpu simulation early (0 = no limit)
-gpgpu_max_insn                         0 # terminates gpu simulation early (0 = no limit)
-gpgpu_max_cta                          0 # terminates gpu simulation early (0 = no limit)
-gpgpu_runtime_stat                   500 # display runtime statistics such as dram utilization {<freq>:<flag>}
-liveness_message_freq                    1 # Minimum number of seconds between simulation liveness messages (0 = always print)
-gpgpu_flush_l1_cache                    0 # Flush L1 cache at the end of each kernel call
-gpgpu_flush_l2_cache                    0 # Flush L2 cache at the end of each kernel call
-gpgpu_deadlock_detect                    0 # Stop the simulation at deadlock (1=on (default), 0=off)
-gpgpu_ptx_instruction_classification                    0 # if enabled will classify ptx instruction types per kernel (Max 255 kernels now)
-gpgpu_ptx_sim_mode                     0 # Select between Performance (default) or Functional simulation (1)
-gpgpu_clock_domains 1481.0:2962.0:1481.0:2750.0 # Clock Domain Frequencies in MhZ {<Core Clock>:<ICNT Clock>:<L2 Clock>:<DRAM Clock>}
-gpgpu_max_concurrent_kernel                    8 # maximum kernels that can run concurrently on GPU
-gpgpu_cflog_interval                    0 # Interval between each snapshot in control flow logger
-visualizer_enabled                     0 # Turn on visualizer output (1=On, 0=Off)
-visualizer_outputfile                 NULL # Specifies the output log file for visualizer
-visualizer_zlevel                      6 # Compression level of the visualizer output log (0=no comp, 9=highest)
-trace_enabled                          0 # Turn on traces
-trace_components                    none # comma seperated list of traces to enable. Complete list found in trace_streams.tup. Default none
-trace_sampling_core                    0 # The core which is printed using CORE_DPRINTF. Default 0
-trace_sampling_memory_partition                   -1 # The memory partition which is printed using MEMPART_DPRINTF. Default -1 (i.e. all)
-gddr_size                            1GB # Size of GDDR in MB/GB.(GLOBAL_HEAP_START, GLOBAL_HEAP_START + gddr_size) would be used for unmanged memory, (GLOBAL_HEAP_START + gddr_size, GLOBAL_HEAP_START + gddr_size*2) would be used for managed memory. 
-page_table_walk_latency                  100 # Average page table walk latency (in core cycle).
-eviction_policy                        0 # Select page eviction policy
-reserve_accessed_page_percent                    0 # Percentage of accessed pages reserved from eviction in hope that they will be accessed in next iteration.
-percentage_of_free_page_buffer                    0 # Percentage of free page buffer to trigger the page eviction.
-page_size                            4KB # GDDR page size, only 4KB/2MB avaliable.
-pcie_bandwith                   16.0GB/s # PCI-e bandwith per direction, in GB/s.
-enable_nvlink                          0 # Enable nvlink 2.0, 150.0GB/s
-enable_rdma                            0 # Enable remote direct memory access
-migrate_threshold                     10 # Access counter threshold for migrating the page from cpu to gpu
-sim_prof_enable                        1 # Enable gpgpu-sim profiler
-hardware_prefetch                      3 # Select gpgpu-sim hardware prefetcher
-hwprefetch_oversub                     0 # Select gpgpu-sim hardware prefetcher under over-subscription
-page_fault_latency                 66645 # Average fault latency (in core cycle).
-enable_accurate_simulation                    0 # Enable page fault functional simulation.
-enable_ptx_file_line_stats                    1 # Turn on PTX source line statistic profiling. (1 = On)
-ptx_line_stats_filename gpgpu_inst_stats.txt # Output file for PTX source line statistics.
-gpgpu_kernel_launch_latency               222150 # Kernel launch latency in cycles. Default: 0
-gpgpu_cdp_enabled                      0 # Turn on CDP
-save_embedded_ptx                      0 # saves ptx files embedded in binary as <n>.ptx
-keep                                   0 # keep intermediate files created by GPGPU-Sim when interfacing with external programs
-gpgpu_ptx_save_converted_ptxplus                    0 # Saved converted ptxplus to a file
-ptx_opcode_latency_int         4,13,4,5,145 # Opcode latencies for integers <ADD,MAX,MUL,MAD,DIV>Default 1,1,19,25,145
-ptx_opcode_latency_fp          4,13,4,5,39 # Opcode latencies for single precision floating points <ADD,MAX,MUL,MAD,DIV>Default 1,1,1,1,30
-ptx_opcode_latency_dp         8,19,8,8,330 # Opcode latencies for double precision floating points <ADD,MAX,MUL,MAD,DIV>Default 8,8,8,8,335
-ptx_opcode_initiation_int            1,2,2,2,8 # Opcode initiation intervals for integers <ADD,MAX,MUL,MAD,DIV>Default 1,1,4,4,32
-ptx_opcode_initiation_fp            1,2,1,1,4 # Opcode initiation intervals for single precision floating points <ADD,MAX,MUL,MAD,DIV>Default 1,1,1,1,5
-ptx_opcode_initiation_dp          1,2,1,1,130 # Opcode initiation intervals for double precision floating points <ADD,MAX,MUL,MAD,DIV>Default 8,8,8,8,130
-cdp_latency         7200,8000,100,12000,1600 # CDP API latency <cudaStreamCreateWithFlags, cudaGetParameterBufferV2_init_perWarp, cudaGetParameterBufferV2_perKernel, cudaLaunchDeviceV2_init_perWarp, cudaLaunchDevicV2_perKernel>Default 7200,8000,100,12000,1600
DRAM Timing Options:
nbk                                    16 # number of banks
CCD                                     2 # column to column delay
RRD                                     6 # minimal delay between activation of rows in different banks
RCD                                    12 # row to column delay
RAS                                    28 # time needed to activate row
RP                                     12 # time needed to precharge (deactivate) row
RC                                     40 # row cycle time
CDLR                                    5 # switching from write to read (changes tWTR)
WR                                     12 # last data-in to row precharge
CL                                     12 # CAS latency
WL                                      4 # Write latency
nbkgrp                                  1 # number of bank groups
CCDL                                    0 # column to column delay between accesses to different bank groups
RTPL                                    0 # read to precharge delay between accesses to different bank groups
Total number of memory sub partition = 22
addr_dec_mask[CHIP]  = 0000000000000000 	high:64 low:0
addr_dec_mask[BK]    = 0000000000007080 	high:15 low:7
addr_dec_mask[ROW]   = 000000000fff8000 	high:28 low:15
addr_dec_mask[COL]   = 0000000000000f7f 	high:12 low:0
addr_dec_mask[BURST] = 000000000000001f 	high:5 low:0
sub_partition_id_mask = 0000000000000080
GPGPU-Sim uArch: clock freqs: 1481000000.000000:2962000000.000000:1481000000.000000:2750000000.000000
GPGPU-Sim uArch: clock periods: 0.00000000067521944632:0.00000000033760972316:0.00000000067521944632:0.00000000036363636364
*** Initializing Memory Statistics ***
GPGPU-Sim uArch: interconnect node map (shaderID+MemID to icntID)
GPGPU-Sim uArch: Memory nodes ID start from index: 28
GPGPU-Sim uArch:    0   1   2   3   4   5   6
GPGPU-Sim uArch:    7   8   9  10  11  12  13
GPGPU-Sim uArch:   14  15  16  17  18  19  20
GPGPU-Sim uArch:   21  22  23  24  25  26  27
GPGPU-Sim uArch:   28  29  30  31  32  33  34
GPGPU-Sim uArch:   35  36  37  38  39  40  41
GPGPU-Sim uArch:   42  43  44  45  46  47  48
GPGPU-Sim uArch:   49
GPGPU-Sim uArch: interconnect node reverse map (icntID to shaderID+MemID)
GPGPU-Sim uArch: Memory nodes start from ID: 28
GPGPU-Sim uArch:    0   1   2   3   4   5   6
GPGPU-Sim uArch:    7   8   9  10  11  12  13
GPGPU-Sim uArch:   14  15  16  17  18  19  20
GPGPU-Sim uArch:   21  22  23  24  25  26  27
GPGPU-Sim uArch:   28  29  30  31  32  33  34
GPGPU-Sim uArch:   35  36  37  38  39  40  41
GPGPU-Sim uArch:   42  43  44  45  46  47  48
GPGPU-Sim uArch:   49
004c936a52bfb9a80b801fd2ef076e81  /home/gpuser/Desktop/gpgpu-sim_UVMSmart/benchmarks/Managed/bfs/bfs
GPGPU-Sim uArch: performance model initialization complete.
GPGPU-Sim PTX: __cudaRegisterFatBinary, fat_cubin_handle = 1, filename=default
self exe links to: /home/gpuser/Desktop/gpgpu-sim_UVMSmart/benchmarks/Managed/bfs/bfs
Running md5sum using "md5sum /home/gpuser/Desktop/gpgpu-sim_UVMSmart/benchmarks/Managed/bfs/bfs "
Parsing file _cuobjdump_complete_output_ZqyQvO
######### cuobjdump parser ########
## Adding new section ELF
Adding arch: sm_20
Adding identifier: default
## Adding new section ELF
Adding arch: sm_20
Adding identifier: default
## Adding new section PTX
Adding ptx filename: _cuobjdump_1.ptx
Adding arch: sm_20
Adding identifier: default
Done parsing!!!
GPGPU-Sim PTX: __cudaRegisterFunction _Z7Kernel2PbS_S_S_i : hostFun 0x0x401649, fat_cubin_handle = 1
GPGPU-Sim PTX: instruction assembly for function '_Z6KernelP4NodePiPbS2_S2_S1_i'...   done.
GPGPU-Sim PTX: finding reconvergence points for '_Z6KernelP4NodePiPbS2_S2_S1_i'...
GPGPU-Sim PTX: Finding dominators for '_Z6KernelP4NodePiPbS2_S2_S1_i'...
GPGPU-Sim PTX: Finding immediate dominators for '_Z6KernelP4NodePiPbS2_S2_S1_i'...
GPGPU-Sim PTX: Finding postdominators for '_Z6KernelP4NodePiPbS2_S2_S1_i'...
GPGPU-Sim PTX: Finding immediate postdominators for '_Z6KernelP4NodePiPbS2_S2_S1_i'...
GPGPU-Sim PTX: pre-decoding instructions for '_Z6KernelP4NodePiPbS2_S2_S1_i'...
GPGPU-Sim PTX: reconvergence points for _Z6KernelP4NodePiPbS2_S2_S1_i...
GPGPU-Sim PTX:  1 (potential) branch divergence @  PC=0x060 (_1.ptx:42) @%p1 bra BB0_7;
GPGPU-Sim PTX:    immediate post dominator      @  PC=0x1e8 (_1.ptx:101) ret;
GPGPU-Sim PTX:  2 (potential) branch divergence @  PC=0x090 (_1.ptx:49) @%p2 bra BB0_7;
GPGPU-Sim PTX:    immediate post dominator      @  PC=0x1e8 (_1.ptx:101) ret;
GPGPU-Sim PTX:  3 (potential) branch divergence @  PC=0x0d8 (_1.ptx:59) @%p3 bra BB0_7;
GPGPU-Sim PTX:    immediate post dominator      @  PC=0x1e8 (_1.ptx:101) ret;
GPGPU-Sim PTX:  4 (potential) branch divergence @  PC=0x160 (_1.ptx:79) @%p4 bra BB0_6;
GPGPU-Sim PTX:    immediate post dominator      @  PC=0x1b8 (_1.ptx:93) mov.u32 %r24, %r25;
GPGPU-Sim PTX:  5 (potential) branch divergence @  PC=0x1e0 (_1.ptx:98) @%p5 bra BB0_4;
GPGPU-Sim PTX:    immediate post dominator      @  PC=0x1e8 (_1.ptx:101) ret;
GPGPU-Sim PTX: ... end of reconvergence points for _Z6KernelP4NodePiPbS2_S2_S1_i
GPGPU-Sim PTX: ... done pre-decoding instructions for '_Z6KernelP4NodePiPbS2_S2_S1_i'.
GPGPU-Sim PTX: instruction assembly for function '_Z7Kernel2PbS_S_S_i'...   done.
GPGPU-Sim PTX: finding reconvergence points for '_Z7Kernel2PbS_S_S_i'...
GPGPU-Sim PTX: Finding dominators for '_Z7Kernel2PbS_S_S_i'...
GPGPU-Sim PTX: Finding immediate dominators for '_Z7Kernel2PbS_S_S_i'...
GPGPU-Sim PTX: Finding postdominators for '_Z7Kernel2PbS_S_S_i'...
GPGPU-Sim PTX: Finding immediate postdominators for '_Z7Kernel2PbS_S_S_i'...
GPGPU-Sim PTX: pre-decoding instructions for '_Z7Kernel2PbS_S_S_i'...
GPGPU-Sim PTX: reconvergence points for _Z7Kernel2PbS_S_S_i...
GPGPU-Sim PTX:  1 (potential) branch divergence @  PC=0x240 (_1.ptx:129) @%p1 bra BB1_3;
GPGPU-Sim PTX:    immediate post dominator      @  PC=0x2d0 (_1.ptx:151) ret;
GPGPU-Sim PTX:  2 (potential) branch divergence @  PC=0x270 (_1.ptx:136) @%p2 bra BB1_3;
GPGPU-Sim PTX:    immediate post dominator      @  PC=0x2d0 (_1.ptx:151) ret;
GPGPU-Sim PTX: ... end of reconvergence points for _Z7Kernel2PbS_S_S_i
GPGPU-Sim PTX: ... done pre-decoding instructions for '_Z7Kernel2PbS_S_S_i'.
GPGPU-Sim PTX: finished parsing EMBEDDED .ptx file _1.ptx
Adding _cuobjdump_1.ptx with cubin handle 1
GPGPU-Sim PTX: extracting embedded .ptx to temporary file "_ptx_hvoia3"
Running: cat _ptx_hvoia3 | sed 's/.version 1.5/.version 1.4/' | sed 's/, texmode_independent//' | sed 's/\(\.extern \.const\[1\] .b8 \w\+\)\[\]/\1\[1\]/' | sed 's/const\[.\]/const\[0\]/g' > _ptx2_7ZgLOh
GPGPU-Sim PTX: generating ptxinfo using "$CUDA_INSTALL_PATH/bin/ptxas --gpu-name=sm_20 -v _ptx2_7ZgLOh --output-file  /dev/null 2> _ptx_hvoia3info"
GPGPU-Sim PTX: Kernel '_Z7Kernel2PbS_S_S_i' : regs=12, lmem=0, smem=0, cmem=68
GPGPU-Sim PTX: Kernel '_Z6KernelP4NodePiPbS2_S2_S1_i' : regs=15, lmem=0, smem=0, cmem=84
GPGPU-Sim PTX: removing ptxinfo using "rm -f _ptx_hvoia3 _ptx2_7ZgLOh _ptx_hvoia3info"
GPGPU-Sim PTX: loading globals with explicit initializers... 
GPGPU-Sim PTX: finished loading globals (0 bytes total).
GPGPU-Sim PTX: loading constants with explicit initializers...  done.
GPGPU-Sim PTX: __cudaRegisterFunction _Z6KernelP4NodePiPbS2_S2_S1_i : hostFun 0x0x401519, fat_cubin_handle = 1
Reading File
Read File
Copied Everything to GPU memory
Start traversing the tree

GPGPU-Sim PTX: cudaLaunch for 0x0x401519 (mode=performance simulation) on stream 0
GPGPU-Sim PTX: pushing kernel '_Z6KernelP4NodePiPbS2_S2_S1_i' to stream 0, gridDim= (128,1,1) blockDim = (512,1,1) 
GPGPU-Sim uArch: Shader 1 bind to kernel 1 '_Z6KernelP4NodePiPbS2_S2_S1_i'
GPGPU-Sim uArch: CTA/core = 4, limited by: threads
GPGPU-Sim uArch: Shader 2 bind to kernel 1 '_Z6KernelP4NodePiPbS2_S2_S1_i'
GPGPU-Sim uArch: Shader 3 bind to kernel 1 '_Z6KernelP4NodePiPbS2_S2_S1_i'
GPGPU-Sim uArch: Shader 4 bind to kernel 1 '_Z6KernelP4NodePiPbS2_S2_S1_i'
GPGPU-Sim uArch: Shader 5 bind to kernel 1 '_Z6KernelP4NodePiPbS2_S2_S1_i'
GPGPU-Sim uArch: Shader 6 bind to kernel 1 '_Z6KernelP4NodePiPbS2_S2_S1_i'
GPGPU-Sim uArch: Shader 7 bind to kernel 1 '_Z6KernelP4NodePiPbS2_S2_S1_i'
GPGPU-Sim uArch: Shader 8 bind to kernel 1 '_Z6KernelP4NodePiPbS2_S2_S1_i'
GPGPU-Sim uArch: Shader 9 bind to kernel 1 '_Z6KernelP4NodePiPbS2_S2_S1_i'
GPGPU-Sim uArch: Shader 10 bind to kernel 1 '_Z6KernelP4NodePiPbS2_S2_S1_i'
GPGPU-Sim uArch: Shader 11 bind to kernel 1 '_Z6KernelP4NodePiPbS2_S2_S1_i'
GPGPU-Sim uArch: Shader 12 bind to kernel 1 '_Z6KernelP4NodePiPbS2_S2_S1_i'
GPGPU-Sim uArch: Shader 13 bind to kernel 1 '_Z6KernelP4NodePiPbS2_S2_S1_i'
GPGPU-Sim uArch: Shader 14 bind to kernel 1 '_Z6KernelP4NodePiPbS2_S2_S1_i'
GPGPU-Sim uArch: Shader 15 bind to kernel 1 '_Z6KernelP4NodePiPbS2_S2_S1_i'
GPGPU-Sim uArch: Shader 16 bind to kernel 1 '_Z6KernelP4NodePiPbS2_S2_S1_i'
GPGPU-Sim uArch: Shader 17 bind to kernel 1 '_Z6KernelP4NodePiPbS2_S2_S1_i'
GPGPU-Sim uArch: Shader 18 bind to kernel 1 '_Z6KernelP4NodePiPbS2_S2_S1_i'
GPGPU-Sim uArch: Shader 19 bind to kernel 1 '_Z6KernelP4NodePiPbS2_S2_S1_i'
GPGPU-Sim uArch: Shader 20 bind to kernel 1 '_Z6KernelP4NodePiPbS2_S2_S1_i'
GPGPU-Sim uArch: Shader 21 bind to kernel 1 '_Z6KernelP4NodePiPbS2_S2_S1_i'
GPGPU-Sim uArch: Shader 22 bind to kernel 1 '_Z6KernelP4NodePiPbS2_S2_S1_i'
GPGPU-Sim uArch: Shader 23 bind to kernel 1 '_Z6KernelP4NodePiPbS2_S2_S1_i'
GPGPU-Sim uArch: Shader 24 bind to kernel 1 '_Z6KernelP4NodePiPbS2_S2_S1_i'
GPGPU-Sim uArch: Shader 25 bind to kernel 1 '_Z6KernelP4NodePiPbS2_S2_S1_i'
GPGPU-Sim uArch: Shader 26 bind to kernel 1 '_Z6KernelP4NodePiPbS2_S2_S1_i'
GPGPU-Sim uArch: Shader 27 bind to kernel 1 '_Z6KernelP4NodePiPbS2_S2_S1_i'
GPGPU-Sim uArch: Shader 0 bind to kernel 1 '_Z6KernelP4NodePiPbS2_S2_S1_i'
Destroy streams for kernel 1: size 0
kernel_name = _Z6KernelP4NodePiPbS2_S2_S1_i 
kernel_launch_uid = 1 
gpu_sim_cycle = 193933
gpu_sim_insn = 1245376
gpu_ipc =       6.4217
gpu_tot_sim_cycle = 418619
gpu_tot_sim_insn = 1245376
gpu_tot_ipc =       2.9750
gpu_tot_issued_cta = 128
max_total_param_size = 0
gpu_stall_dramfull = 0
gpu_stall_icnt2sh    = 329
partiton_reqs_in_parallel = 4266526
partiton_reqs_in_parallel_total    = 0
partiton_level_parallism =      22.0000
partiton_level_parallism_total  =      10.1919
partiton_reqs_in_parallel_util = 4266526
partiton_reqs_in_parallel_util_total    = 0
gpu_sim_cycle_parition_util = 193933
gpu_tot_sim_cycle_parition_util    = 0
partiton_level_parallism_util =      22.0000
partiton_level_parallism_util_total  =      22.0000
partiton_replys_in_parallel = 2220
partiton_replys_in_parallel_total    = 0
L2_BW  =       1.0850 GB/Sec
L2_BW_total  =       0.5027 GB/Sec
gpu_total_sim_rate=5792

========= Core cache stats =========
L1I_cache:
	L1I_total_cache_accesses = 22632
	L1I_total_cache_misses = 2715
	L1I_total_cache_miss_rate = 0.1200
	L1I_total_cache_pending_hits = 0
	L1I_total_cache_reservation_fails = 6846
L1D_cache:
	L1D_cache_core[0]: Access = 0, Miss = 0, Miss_rate = -nan, Pending_hits = 0, Reservation_fails = 0
	L1D_cache_core[1]: Access = 0, Miss = 0, Miss_rate = -nan, Pending_hits = 0, Reservation_fails = 0
	L1D_cache_core[2]: Access = 0, Miss = 0, Miss_rate = -nan, Pending_hits = 0, Reservation_fails = 0
	L1D_cache_core[3]: Access = 0, Miss = 0, Miss_rate = -nan, Pending_hits = 0, Reservation_fails = 0
	L1D_cache_core[4]: Access = 0, Miss = 0, Miss_rate = -nan, Pending_hits = 0, Reservation_fails = 0
	L1D_cache_core[5]: Access = 0, Miss = 0, Miss_rate = -nan, Pending_hits = 0, Reservation_fails = 0
	L1D_cache_core[6]: Access = 0, Miss = 0, Miss_rate = -nan, Pending_hits = 0, Reservation_fails = 0
	L1D_cache_core[7]: Access = 0, Miss = 0, Miss_rate = -nan, Pending_hits = 0, Reservation_fails = 0
	L1D_cache_core[8]: Access = 0, Miss = 0, Miss_rate = -nan, Pending_hits = 0, Reservation_fails = 0
	L1D_cache_core[9]: Access = 0, Miss = 0, Miss_rate = -nan, Pending_hits = 0, Reservation_fails = 0
	L1D_cache_core[10]: Access = 0, Miss = 0, Miss_rate = -nan, Pending_hits = 0, Reservation_fails = 0
	L1D_cache_core[11]: Access = 0, Miss = 0, Miss_rate = -nan, Pending_hits = 0, Reservation_fails = 0
	L1D_cache_core[12]: Access = 0, Miss = 0, Miss_rate = -nan, Pending_hits = 0, Reservation_fails = 0
	L1D_cache_core[13]: Access = 0, Miss = 0, Miss_rate = -nan, Pending_hits = 0, Reservation_fails = 0
	L1D_cache_core[14]: Access = 0, Miss = 0, Miss_rate = -nan, Pending_hits = 0, Reservation_fails = 0
	L1D_cache_core[15]: Access = 0, Miss = 0, Miss_rate = -nan, Pending_hits = 0, Reservation_fails = 0
	L1D_cache_core[16]: Access = 0, Miss = 0, Miss_rate = -nan, Pending_hits = 0, Reservation_fails = 0
	L1D_cache_core[17]: Access = 0, Miss = 0, Miss_rate = -nan, Pending_hits = 0, Reservation_fails = 0
	L1D_cache_core[18]: Access = 0, Miss = 0, Miss_rate = -nan, Pending_hits = 0, Reservation_fails = 0
	L1D_cache_core[19]: Access = 0, Miss = 0, Miss_rate = -nan, Pending_hits = 0, Reservation_fails = 0
	L1D_cache_core[20]: Access = 0, Miss = 0, Miss_rate = -nan, Pending_hits = 0, Reservation_fails = 0
	L1D_cache_core[21]: Access = 0, Miss = 0, Miss_rate = -nan, Pending_hits = 0, Reservation_fails = 0
	L1D_cache_core[22]: Access = 0, Miss = 0, Miss_rate = -nan, Pending_hits = 0, Reservation_fails = 0
	L1D_cache_core[23]: Access = 0, Miss = 0, Miss_rate = -nan, Pending_hits = 0, Reservation_fails = 0
	L1D_cache_core[24]: Access = 0, Miss = 0, Miss_rate = -nan, Pending_hits = 0, Reservation_fails = 0
	L1D_cache_core[25]: Access = 0, Miss = 0, Miss_rate = -nan, Pending_hits = 0, Reservation_fails = 0
	L1D_cache_core[26]: Access = 0, Miss = 0, Miss_rate = -nan, Pending_hits = 0, Reservation_fails = 0
	L1D_cache_core[27]: Access = 0, Miss = 0, Miss_rate = -nan, Pending_hits = 0, Reservation_fails = 0
	L1D_total_cache_accesses = 0
	L1D_total_cache_misses = 0
	L1D_total_cache_pending_hits = 0
	L1D_total_cache_reservation_fails = 0
	L1D_cache_data_port_util = 0.000
	L1D_cache_fill_port_util = 0.000
L1C_cache:
	L1C_total_cache_accesses = 14336
	L1C_total_cache_misses = 1792
	L1C_total_cache_miss_rate = 0.1250
	L1C_total_cache_pending_hits = 0
	L1C_total_cache_reservation_fails = 4886
L1T_cache:
	L1T_total_cache_accesses = 0
	L1T_total_cache_misses = 0
	L1T_total_cache_pending_hits = 0
	L1T_total_cache_reservation_fails = 0

Total_core_cache_stats:
	Total_core_cache_stats_breakdown[GLOBAL_ACC_R][HIT] = 0
	Total_core_cache_stats_breakdown[GLOBAL_ACC_R][HIT_RESERVED] = 0
	Total_core_cache_stats_breakdown[GLOBAL_ACC_R][MISS] = 0
	Total_core_cache_stats_breakdown[GLOBAL_ACC_R][RESERVATION_FAIL] = 0
	Total_core_cache_stats_breakdown[LOCAL_ACC_R][HIT] = 0
	Total_core_cache_stats_breakdown[LOCAL_ACC_R][HIT_RESERVED] = 0
	Total_core_cache_stats_breakdown[LOCAL_ACC_R][MISS] = 0
	Total_core_cache_stats_breakdown[LOCAL_ACC_R][RESERVATION_FAIL] = 0
	Total_core_cache_stats_breakdown[CONST_ACC_R][HIT] = 12544
	Total_core_cache_stats_breakdown[CONST_ACC_R][HIT_RESERVED] = 0
	Total_core_cache_stats_breakdown[CONST_ACC_R][MISS] = 1792
	Total_core_cache_stats_breakdown[CONST_ACC_R][RESERVATION_FAIL] = 4886
	Total_core_cache_stats_breakdown[TEXTURE_ACC_R][HIT] = 0
	Total_core_cache_stats_breakdown[TEXTURE_ACC_R][HIT_RESERVED] = 0
	Total_core_cache_stats_breakdown[TEXTURE_ACC_R][MISS] = 0
	Total_core_cache_stats_breakdown[TEXTURE_ACC_R][RESERVATION_FAIL] = 0
	Total_core_cache_stats_breakdown[GLOBAL_ACC_W][HIT] = 0
	Total_core_cache_stats_breakdown[GLOBAL_ACC_W][HIT_RESERVED] = 0
	Total_core_cache_stats_breakdown[GLOBAL_ACC_W][MISS] = 0
	Total_core_cache_stats_breakdown[GLOBAL_ACC_W][RESERVATION_FAIL] = 0
	Total_core_cache_stats_breakdown[LOCAL_ACC_W][HIT] = 0
	Total_core_cache_stats_breakdown[LOCAL_ACC_W][HIT_RESERVED] = 0
	Total_core_cache_stats_breakdown[LOCAL_ACC_W][MISS] = 0
	Total_core_cache_stats_breakdown[LOCAL_ACC_W][RESERVATION_FAIL] = 0
	Total_core_cache_stats_breakdown[L1_WRBK_ACC][HIT] = 0
	Total_core_cache_stats_breakdown[L1_WRBK_ACC][HIT_RESERVED] = 0
	Total_core_cache_stats_breakdown[L1_WRBK_ACC][MISS] = 0
	Total_core_cache_stats_breakdown[L1_WRBK_ACC][RESERVATION_FAIL] = 0
	Total_core_cache_stats_breakdown[L2_WRBK_ACC][HIT] = 0
	Total_core_cache_stats_breakdown[L2_WRBK_ACC][HIT_RESERVED] = 0
	Total_core_cache_stats_breakdown[L2_WRBK_ACC][MISS] = 0
	Total_core_cache_stats_breakdown[L2_WRBK_ACC][RESERVATION_FAIL] = 0
	Total_core_cache_stats_breakdown[INST_ACC_R][HIT] = 19917
	Total_core_cache_stats_breakdown[INST_ACC_R][HIT_RESERVED] = 0
	Total_core_cache_stats_breakdown[INST_ACC_R][MISS] = 2715
	Total_core_cache_stats_breakdown[INST_ACC_R][RESERVATION_FAIL] = 6846
	Total_core_cache_stats_breakdown[L1_WR_ALLOC_R][HIT] = 0
	Total_core_cache_stats_breakdown[L1_WR_ALLOC_R][HIT_RESERVED] = 0
	Total_core_cache_stats_breakdown[L1_WR_ALLOC_R][MISS] = 0
	Total_core_cache_stats_breakdown[L1_WR_ALLOC_R][RESERVATION_FAIL] = 0
	Total_core_cache_stats_breakdown[L2_WR_ALLOC_R][HIT] = 0
	Total_core_cache_stats_breakdown[L2_WR_ALLOC_R][HIT_RESERVED] = 0
	Total_core_cache_stats_breakdown[L2_WR_ALLOC_R][MISS] = 0
	Total_core_cache_stats_breakdown[L2_WR_ALLOC_R][RESERVATION_FAIL] = 0
	Total_core_cache_stats_breakdown[CONST_ACC_R][TOTAL_ACCESS] = 14336
	Total_core_cache_stats_breakdown[INST_ACC_R][TOTAL_ACCESS] = 22632
Shader 0 warp_id issue ditsribution:
warp_id:
0, 1, 2, 3, 4, 5, 6, 7, 8, 9, 10, 11, 12, 13, 14, 15, 16, 17, 18, 19, 20, 21, 22, 23, 24, 25, 26, 27, 28, 29, 30, 31, 32, 33, 34, 35, 36, 37, 38, 39, 40, 41, 42, 43, 44, 45, 46, 47, 48, 49, 50, 51, 52, 53, 54, 55, 56, 57, 58, 59, 60, 61, 62, 63, 
distro:
46, 46, 45, 46, 45, 46, 45, 46, 46, 46, 46, 46, 46, 46, 46, 46, 23, 23, 23, 23, 23, 23, 23, 23, 23, 23, 23, 23, 23, 23, 23, 23, 23, 23, 23, 23, 23, 23, 23, 23, 23, 23, 23, 23, 23, 23, 23, 23, 23, 23, 23, 23, 23, 23, 23, 23, 23, 23, 23, 23, 23, 23, 23, 23, 
gpgpu_n_tot_thrd_icount = 1317216
gpgpu_n_tot_w_icount = 41163
gpgpu_n_stall_shd_mem = 4886
gpgpu_n_mem_read_local = 0
gpgpu_n_mem_write_local = 0
gpgpu_n_mem_read_global = 2090
gpgpu_n_mem_write_global = 17
gpgpu_n_mem_texture = 0
gpgpu_n_mem_const = 28
gpgpu_n_load_insn  = 65578
gpgpu_n_store_insn = 17
gpgpu_n_shmem_insn = 0
gpgpu_n_tex_insn = 0
gpgpu_n_const_mem_insn = 0
gpgpu_n_param_mem_insn = 458752
gpgpu_n_shmem_bkconflict = 0
gpgpu_n_cache_bkconflict = 0
gpgpu_n_intrawarp_mshr_merge = 0
gpgpu_n_cmem_portconflict = 4886
gpgpu_stall_shd_mem[c_mem][bk_conf] = 4886
gpgpu_stall_shd_mem[c_mem][mshr_rc] = 0
gpgpu_stall_shd_mem[c_mem][icnt_rc] = 0
gpgpu_stall_shd_mem[c_mem][data_port_stall] = 0
gpgpu_stall_shd_mem[t_mem][mshr_rc] = 0
gpgpu_stall_shd_mem[t_mem][icnt_rc] = 0
gpgpu_stall_shd_mem[t_mem][data_port_stall] = 0
gpgpu_stall_shd_mem[s_mem][bk_conf] = 0
gpgpu_stall_shd_mem[gl_mem][bk_conf] = 0
gpgpu_stall_shd_mem[gl_mem][coal_stall] = 0
gpgpu_stall_shd_mem[gl_mem][data_port_stall] = 0
gpgpu_stall_shd_mem[g_mem_ld][mshr_rc] = 0
gpgpu_stall_shd_mem[g_mem_ld][icnt_rc] = 0
gpgpu_stall_shd_mem[g_mem_ld][wb_icnt_rc] = 0
gpgpu_stall_shd_mem[g_mem_ld][wb_rsrv_fail] = 0
gpgpu_stall_shd_mem[g_mem_st][mshr_rc] = 0
gpgpu_stall_shd_mem[g_mem_st][icnt_rc] = 0
gpgpu_stall_shd_mem[g_mem_st][wb_icnt_rc] = 0
gpgpu_stall_shd_mem[g_mem_st][wb_rsrv_fail] = 0
gpgpu_stall_shd_mem[l_mem_ld][mshr_rc] = 0
gpgpu_stall_shd_mem[l_mem_ld][icnt_rc] = 0
gpgpu_stall_shd_mem[l_mem_ld][wb_icnt_rc] = 0
gpgpu_stall_shd_mem[l_mem_ld][wb_rsrv_fail] = 0
gpgpu_stall_shd_mem[l_mem_st][mshr_rc] = 0
gpgpu_stall_shd_mem[l_mem_st][icnt_rc] = 0
gpgpu_stall_shd_mem[l_mem_ld][wb_icnt_rc] = 0
gpgpu_stall_shd_mem[l_mem_ld][wb_rsrv_fail] = 0
gpu_reg_bank_conflict_stalls = 0
Warp Occupancy Distribution:
Stall:16067	W0_Idle:153938	W0_Scoreboard:4202688	W1:203	W2:0	W3:0	W4:0	W5:0	W6:0	W7:0	W8:0	W9:0	W10:0	W11:0	W12:0	W13:0	W14:0	W15:0	W16:0	W17:0	W18:0	W19:0	W20:0	W21:0	W22:0	W23:0	W24:0	W25:0	W26:0	W27:0	W28:0	W29:0	W30:0	W31:0	W32:40960
traffic_breakdown_coretomem[CONST_ACC_R] = 224 {8:28,}
traffic_breakdown_coretomem[GLOBAL_ACC_R] = 16720 {8:2090,}
traffic_breakdown_coretomem[GLOBAL_ACC_W] = 680 {40:17,}
traffic_breakdown_coretomem[INST_ACC_R] = 680 {8:85,}
traffic_breakdown_memtocore[CONST_ACC_R] = 2016 {72:28,}
traffic_breakdown_memtocore[GLOBAL_ACC_R] = 83600 {40:2090,}
traffic_breakdown_memtocore[GLOBAL_ACC_W] = 136 {8:17,}
traffic_breakdown_memtocore[INST_ACC_R] = 11560 {136:85,}
maxmrqlatency = 13 
maxdqlatency = 0 
maxmflatency = 78017 
averagemflatency = 39952 
max_icnt2mem_latency = 77777 
max_icnt2sh_latency = 418618 
mrq_lat_table:458 	16 	74 	12 	0 	0 	0 	0 	0 	0 	0 	0 	0 	0 	0 	0 	0 	0 	0 	0 	0 	0 	0 	0 	0 	0 	0 	0 	0 	0 	0 	0 	
dq_lat_table:0 	0 	0 	0 	0 	0 	0 	0 	0 	0 	0 	0 	0 	0 	0 	0 	0 	0 	0 	0 	0 	0 	0 	0 	0 	0 	0 	0 	0 	0 	0 	0 	
mf_lat_table:0 	0 	0 	0 	0 	0 	0 	63 	1 	0 	0 	128 	135 	140 	387 	896 	385 	0 	0 	0 	0 	0 	0 	0 	0 	0 	0 	0 	0 	0 	0 	0 	
icnt2mem_lat_table:0 	0 	120 	12 	16 	0 	1 	0 	0 	0 	0 	128 	135 	140 	387 	896 	385 	0 	0 	0 	0 	0 	0 	0 	
icnt2sh_lat_table:0 	0 	948 	1038 	132 	0 	0 	0 	0 	0 	0 	0 	0 	0 	0 	0 	0 	1 	16 	0 	0 	0 	0 	0 	
mf_lat_pw_table:0 	0 	0 	0 	0 	0 	0 	11 	0 	0 	1 	2 	8 	12 	4 	7 	4 	0 	0 	0 	0 	0 	0 	0 	0 	0 	0 	0 	0 	0 	0 	0 	
maximum concurrent accesses to same row:
dram[0]:         0         0         0         0         0         0         0         0         0         0         0         0         0         0         0         0 
dram[1]:         0         0         0         0         0         0         0         0         0         0         1         0         0         0         0         0 
dram[2]:         0         0         0         0         0        15         0         0         0         0         0         0         0         0         0         0 
dram[3]:         0         0         0         0         0         0         0         0         0         0         0         0         0         0         0         0 
dram[4]:         0         0         0         0         0         0         0         0         0         0         0         0         0         0         0         0 
dram[5]:         0         0         0         0         0         0         0         0         0         0         0         0         0         0         0         0 
dram[6]:         0         0         0         0         0         0         0         0         0         0         0         0         0         0         0         0 
dram[7]:         0         0         0         0         0         0         0         0         0         0         0         0         0         0         0         0 
dram[8]:         0         0         9         0         0         0         0         0         0         0         0         0         0         0         0         0 
dram[9]:         0         0         0         0         0         0         0         0         0         0         0         0         0         0         0         0 
dram[10]:         0         0         0         0         0         0         0         0         0         0         0         0         0         0         0         0 
maximum service time to same row:
dram[0]:         0         0      3755      3757     14176     14177         0         0         0         0         0         0         0         0         0         0 
dram[1]:         0         0      3760      3763     14176     14176         0         0         0    128795     81905    107955         0         0         0         0 
dram[2]:         0         0      3755      3757     14176    109408    183500         0    174588         0         0         0         0         0         0         0 
dram[3]:         0         0      3760      3763     14176     14176         0    136610    152240         0         0         0    193920         0         0         0 
dram[4]:         0         0      3755      3757     14176     14177    113165         0         0         0         0    118375         0         0       228       789 
dram[5]:         0         0      3758      3761     14179     14181    167871         0    173080         0         0         0    178290         0     82169      4014 
dram[6]:         0         0      3755      3757     14176     14177         0         0         0    119231    141821    173834         0         0         0    162660 
dram[7]:         0         0      3755      3757     14179     14181         0         0     97535         0         0         0         0         0         0         0 
dram[8]:         0         0    143275      3757     14176     14177         0         0         0         0    157450         0         0         0         0         0 
dram[9]:         0         0      3755      3757     14179     14181         0         0    102745         0         0         0         0         0         0         0 
dram[10]:         0         0      3755      3757     14176     14177    183502         0         0         0    131400         0         0         0         0    188710 
average row accesses per activate:
dram[0]:       inf      -nan  8.000000  8.000000 15.000000 15.000000      -nan      -nan      -nan      -nan      -nan      -nan      -nan      -nan      -nan      -nan 
dram[1]:      -nan      -nan  8.000000  8.000000 15.000000 15.000000      -nan      -nan      -nan  2.000000  1.000000  2.000000      -nan      -nan      -nan      -nan 
dram[2]:      -nan      -nan  8.000000  8.000000 15.000000  8.500000  2.000000      -nan  1.000000      -nan      -nan      -nan      -nan      -nan      -nan      -nan 
dram[3]:      -nan      -nan  9.000000  9.000000 15.000000 15.000000      -nan  4.000000  2.000000      -nan      -nan      -nan  2.000000      -nan      -nan      -nan 
dram[4]:      -nan      -nan  9.000000  9.000000 15.000000 15.000000  2.000000      -nan      -nan      -nan      -nan  1.000000      -nan      -nan  1.000000  1.000000 
dram[5]:      -nan      -nan  9.000000  9.000000 15.000000 15.000000  2.000000      -nan  1.000000      -nan      -nan      -nan  2.000000      -nan  1.000000  1.000000 
dram[6]:      -nan      -nan  9.000000  9.000000 14.000000 14.000000      -nan      -nan      -nan  1.000000  1.000000  1.000000      -nan      -nan      -nan  2.000000 
dram[7]:      -nan      -nan  9.000000  9.000000 14.000000 14.000000      -nan      -nan  1.000000      -nan      -nan      -nan      -nan      -nan      -nan      -nan 
dram[8]:      -nan      -nan  5.500000  9.000000 14.000000 14.000000      -nan      -nan      -nan      -nan  1.000000      -nan      -nan      -nan      -nan      -nan 
dram[9]:      -nan      -nan  9.000000  9.000000 14.000000 14.000000      -nan      -nan  1.000000      -nan      -nan      -nan      -nan      -nan      -nan      -nan 
dram[10]:      -nan      -nan  9.000000  9.000000 14.000000 14.000000  2.000000      -nan      -nan      -nan  2.000000      -nan      -nan      -nan      -nan  2.000000 
average row locality = 560/74 = 7.567567
number of total memory accesses made:
dram[0]:         0         0         0         0         0         0         0         0         0         0         0         0         0         0         0         0 
dram[1]:         0         0         0         0         0         0         0         0         0         0         0         0         0         0         0         0 
dram[2]:         0         0         0         0         0         0         0         0         0         0         0         0         0         0         0         0 
dram[3]:         0         0         0         0         0         0         0         0         0         0         0         0         0         0         0         0 
dram[4]:         0         0         0         0         0         0         0         0         0         0         0         0         0         0         0         0 
dram[5]:         0         0         0         0         0         0         0         0         0         0         0         0         0         0         0         0 
dram[6]:         0         0         0         0         0         0         0         0         0         0         0         0         0         0         0         0 
dram[7]:         0         0         0         0         0         0         0         0         0         0         0         0         0         0         0         0 
dram[8]:         0         0         0         0         0         0         0         0         0         0         0         0         0         0         0         0 
dram[9]:         0         0         0         0         0         0         0         0         0         0         0         0         0         0         0         0 
dram[10]:         0         0         0         0         0         0         0         0         0         0         0         0         0         0         0         0 
total accesses: 0
min_bank_accesses = 0!
min_chip_accesses = 0!
number of total read accesses:
dram[0]:         1         0         8         8        15        15         0         0         0         0         0         0         0         0         0         0 
dram[1]:         0         0         8         8        15        15         0         0         0         1         2         1         0         0         0         0 
dram[2]:         0         0         8         8        15        16         1         0         1         0         0         0         0         0         0         0 
dram[3]:         0         0         9         9        15        15         0         2         1         0         0         0         1         0         0         0 
dram[4]:         0         0         9         9        15        15         1         0         0         0         0         1         0         0         1         1 
dram[5]:         0         0         9         9        15        15         1         0         1         0         0         0         1         0         1         1 
dram[6]:         0         0         9         9        14        14         0         0         0         1         1         1         0         0         0         1 
dram[7]:         0         0         9         9        14        14         0         0         1         0         0         0         0         0         0         0 
dram[8]:         0         0        10         9        14        14         0         0         0         0         1         0         0         0         0         0 
dram[9]:         0         0         9         9        14        14         0         0         1         0         0         0         0         0         0         0 
dram[10]:         0         0         9         9        14        14         1         0         0         0         1         0         0         0         0         1 
total reads: 544
min_bank_accesses = 0!
chip skew: 53/47 = 1.13
number of total write accesses:
dram[0]:         0         0         0         0         0         0         0         0         0         0         0         0         0         0         0         0 
dram[1]:         0         0         0         0         0         0         0         0         0         1         0         1         0         0         0         0 
dram[2]:         0         0         0         0         0         1         1         0         0         0         0         0         0         0         0         0 
dram[3]:         0         0         0         0         0         0         0         2         1         0         0         0         1         0         0         0 
dram[4]:         0         0         0         0         0         0         1         0         0         0         0         0         0         0         0         0 
dram[5]:         0         0         0         0         0         0         1         0         0         0         0         0         1         0         0         0 
dram[6]:         0         0         0         0         0         0         0         0         0         0         0         0         0         0         0         1 
dram[7]:         0         0         0         0         0         0         0         0         0         0         0         0         0         0         0         0 
dram[8]:         0         0         1         0         0         0         0         0         0         0         0         0         0         0         0         0 
dram[9]:         0         0         0         0         0         0         0         0         0         0         0         0         0         0         0         0 
dram[10]:         0         0         0         0         0         0         1         0         0         0         1         0         0         0         0         1 
total reads: 16
min_bank_accesses = 0!
min_chip_accesses = 0!
average mf latency per bank:
dram[0]:       6678    none       94972     94977    196234    196196    none      none      none      none      none      none      none      none      none      none  
dram[1]:     none      none      105391    105398    197685    197652    none      none      none        5113     43010      2587    none      none      none      none  
dram[2]:     none      none      110627    110634    194902    172243      5113    none         250    none      none      none      none      none      none      none  
dram[3]:     none      none      101969    101966    207422    207388    none        4355      5113    none      none      none        9576    none      none      none  
dram[4]:     none      none      101922    101935    207469    207441      5185    none      none      none      none       15269    none      none           0         0
dram[5]:     none      none      101925    101936    211627    211591      5113    none       15126    none      none      none        2515    none           0         0
dram[6]:     none      none      108876    108882    205927    205889    none      none      none         352     22085       250    none      none      none        2515
dram[7]:     none      none       90342     90356    209444    209409    none      none        5186    none      none      none      none      none      none      none  
dram[8]:     none      none       83854    101922    210931    210896    none      none      none      none       15126    none      none      none      none      none  
dram[9]:     none      none      101919    101919    200512    200461    none      none        6107    none      none      none      none      none      none      none  
dram[10]:     none      none      101917    101919    206456    206410      4360    none      none      none        5995    none      none      none      none        7348
maximum mf latency per bank:
dram[0]:        252         0     44572     44575     77889     77882         0         0         0         0         0         0         0         0         0         0
dram[1]:          0         0     44567     44572     78017     78013         0         0         0     10227     72903      5174         0         0         0         0
dram[2]:          0         0     44585     44593     77992     77982     10227         0       250         0         0         0         0         0         0         0
dram[3]:          0         0     44587     44595     78017     78012         0     17186     10227         0         0         0     19153         0         0         0
dram[4]:          0         0     44578     44588     77994     77981     10370         0         0         0         0     15269         0         0         0         0
dram[5]:          0         0     44583     44591     78014     78012     10227         0     15126         0         0         0      5031         0         0         0
dram[6]:          0         0     44575     44586     77991     77969         0         0         0       352     22085       250         0         0         0      5031
dram[7]:          0         0     44576     44583     77898     77892         0         0      5186         0         0         0         0         0         0         0
dram[8]:          0         0     44576     44581     77877     77853         0         0         0         0     15126         0         0         0         0         0
dram[9]:          0         0     44575     44578     77894     77888         0         0      5197         0         0         0         0         0         0         0
dram[10]:          0         0     44573     44578     77873     77849      8721         0         0         0     11990         0         0         0         0     14697
Memory Partition 0: 
Cache L2_bank_000:
MSHR contents

Cache L2_bank_001:
MSHR contents

In Dram Latency Queue (total = 0): 
DRAM[0]: 16 bks, busW=4 BL=8 CL=12, tRRD=2 tCCD=6, tRCD=12 tRAS=28 tRP=12 tRC=40
n_cmd=360104 n_nop=359911 n_act=5 n_pre=0 n_req=47 n_rd=188 n_write=0 bw_util=0.001044
n_activity=592 dram_eff=0.6351
bk0: 4a 360085i bk1: 0a 360105i bk2: 32a 360028i bk3: 32a 359998i bk4: 60a 359974i bk5: 60a 359903i bk6: 0a 360103i bk7: 0a 360103i bk8: 0a 360103i bk9: 0a 360104i bk10: 0a 360104i bk11: 0a 360104i bk12: 0a 360104i bk13: 0a 360104i bk14: 0a 360104i bk15: 0a 360104i 
dram_util_bins: 0 0 0 0 0 0 0 0 0 0
dram_eff_bins: 0 0 0 0 0 0 0 0 0 0
mrqq: max=2 avg=0.00030269
Memory Partition 1: 
Cache L2_bank_002:
MSHR contents

Cache L2_bank_003:
MSHR contents

In Dram Latency Queue (total = 0): 
DRAM[1]: 16 bks, busW=4 BL=8 CL=12, tRRD=2 tCCD=6, tRCD=12 tRAS=28 tRP=12 tRC=40
n_cmd=360104 n_nop=359893 n_act=8 n_pre=1 n_req=52 n_rd=200 n_write=2 bw_util=0.001122
n_activity=733 dram_eff=0.5512
bk0: 0a 360104i bk1: 0a 360105i bk2: 32a 360035i bk3: 32a 359996i bk4: 60a 359982i bk5: 60a 359902i bk6: 0a 360105i bk7: 0a 360106i bk8: 0a 360106i bk9: 4a 360080i bk10: 8a 360053i bk11: 4a 360077i bk12: 0a 360102i bk13: 0a 360102i bk14: 0a 360103i bk15: 0a 360103i 
dram_util_bins: 0 0 0 0 0 0 0 0 0 0
dram_eff_bins: 0 0 0 0 0 0 0 0 0 0
mrqq: max=2 avg=0.000311021
Memory Partition 2: 
Cache L2_bank_004:
MSHR contents

Cache L2_bank_005:
MSHR contents

In Dram Latency Queue (total = 0): 
DRAM[2]: 16 bks, busW=4 BL=8 CL=12, tRRD=2 tCCD=6, tRCD=12 tRAS=28 tRP=12 tRC=40
n_cmd=360104 n_nop=359898 n_act=7 n_pre=1 n_req=51 n_rd=196 n_write=2 bw_util=0.0011
n_activity=692 dram_eff=0.5723
bk0: 0a 360105i bk1: 0a 360106i bk2: 32a 360035i bk3: 32a 359995i bk4: 60a 359985i bk5: 64a 359859i bk6: 4a 360077i bk7: 0a 360102i bk8: 4a 360083i bk9: 0a 360101i bk10: 0a 360103i bk11: 0a 360103i bk12: 0a 360103i bk13: 0a 360104i bk14: 0a 360104i bk15: 0a 360105i 
dram_util_bins: 0 0 0 0 0 0 0 0 0 0
dram_eff_bins: 0 0 0 0 0 0 0 0 0 0
mrqq: max=2 avg=0.000341568
Memory Partition 3: 
Cache L2_bank_006:
MSHR contents
MSHR: tag=0xc02c4400, atomic=0 1 entries : 0x7ff8b75a35f0 :  mf: uid= 50823, sid01:w00, part=3, addr=0xc02c4440, load , size=32, unknown  status = IN_PARTITION_DRAM (418618), 

Cache L2_bank_007:
MSHR contents

In Dram Latency Queue (total = 0): 
DRAM[3]: 16 bks, busW=4 BL=8 CL=12, tRRD=2 tCCD=6, tRCD=12 tRAS=28 tRP=12 tRC=40
n_cmd=360104 n_nop=359886 n_act=7 n_pre=0 n_req=56 n_rd=207 n_write=4 bw_util=0.001172
n_activity=709 dram_eff=0.5952
bk0: 0a 360104i bk1: 0a 360107i bk2: 36a 360029i bk3: 36a 359980i bk4: 60a 359976i bk5: 60a 359901i bk6: 0a 360104i bk7: 8a 360061i bk8: 4a 360077i bk9: 0a 360102i bk10: 0a 360103i bk11: 0a 360103i bk12: 3a 360080i bk13: 0a 360103i bk14: 0a 360103i bk15: 0a 360104i 
dram_util_bins: 0 0 0 0 0 0 0 0 0 0
dram_eff_bins: 0 0 0 0 0 0 0 0 0 0
mrqq: max=2 avg=0.000324906
Memory Partition 4: 
Cache L2_bank_008:
MSHR contents

Cache L2_bank_009:
MSHR contents

In Dram Latency Queue (total = 0): 
DRAM[4]: 16 bks, busW=4 BL=8 CL=12, tRRD=2 tCCD=6, tRCD=12 tRAS=28 tRP=12 tRC=40
n_cmd=360104 n_nop=359887 n_act=8 n_pre=0 n_req=53 n_rd=208 n_write=1 bw_util=0.001161
n_activity=736 dram_eff=0.5679
bk0: 0a 360104i bk1: 0a 360107i bk2: 36a 360029i bk3: 36a 359982i bk4: 60a 359977i bk5: 60a 359897i bk6: 4a 360078i bk7: 0a 360102i bk8: 0a 360102i bk9: 0a 360104i bk10: 0a 360104i bk11: 4a 360084i bk12: 0a 360102i bk13: 0a 360103i bk14: 4a 360083i bk15: 4a 360085i 
dram_util_bins: 0 0 0 0 0 0 0 0 0 0
dram_eff_bins: 0 0 0 0 0 0 0 0 0 0
mrqq: max=2 avg=0.00030269
Memory Partition 5: 
Cache L2_bank_010:
MSHR contents

Cache L2_bank_011:
MSHR contents

In Dram Latency Queue (total = 0): 
DRAM[5]: 16 bks, busW=4 BL=8 CL=12, tRRD=2 tCCD=6, tRCD=12 tRAS=28 tRP=12 tRC=40
n_cmd=360104 n_nop=359881 n_act=9 n_pre=0 n_req=55 n_rd=212 n_write=2 bw_util=0.001189
n_activity=784 dram_eff=0.5459
bk0: 0a 360102i bk1: 0a 360103i bk2: 36a 360017i bk3: 36a 359968i bk4: 60a 359977i bk5: 60a 359904i bk6: 4a 360079i bk7: 0a 360103i bk8: 4a 360084i bk9: 0a 360103i bk10: 0a 360105i bk11: 0a 360107i bk12: 4a 360081i bk13: 0a 360105i bk14: 4a 360085i bk15: 4a 360083i 
dram_util_bins: 0 0 0 0 0 0 0 0 0 0
dram_eff_bins: 0 0 0 0 0 0 0 0 0 0
mrqq: max=1 avg=0.000249928
Memory Partition 6: 
Cache L2_bank_012:
MSHR contents

Cache L2_bank_013:
MSHR contents

In Dram Latency Queue (total = 0): 
DRAM[6]: 16 bks, busW=4 BL=8 CL=12, tRRD=2 tCCD=6, tRCD=12 tRAS=28 tRP=12 tRC=40
n_cmd=360104 n_nop=359895 n_act=8 n_pre=0 n_req=51 n_rd=200 n_write=1 bw_util=0.001116
n_activity=728 dram_eff=0.5522
bk0: 0a 360102i bk1: 0a 360104i bk2: 36a 360019i bk3: 36a 359972i bk4: 56a 359983i bk5: 56a 359917i bk6: 0a 360104i bk7: 0a 360105i bk8: 0a 360105i bk9: 4a 360086i bk10: 4a 360085i bk11: 4a 360084i bk12: 0a 360103i bk13: 0a 360104i bk14: 0a 360104i bk15: 4a 360078i 
dram_util_bins: 0 0 0 0 0 0 0 0 0 0
dram_eff_bins: 0 0 0 0 0 0 0 0 0 0
mrqq: max=1 avg=0.00021105
Memory Partition 7: 
Cache L2_bank_014:
MSHR contents

Cache L2_bank_015:
MSHR contents

In Dram Latency Queue (total = 0): 
DRAM[7]: 16 bks, busW=4 BL=8 CL=12, tRRD=2 tCCD=6, tRCD=12 tRAS=28 tRP=12 tRC=40
n_cmd=360104 n_nop=359911 n_act=5 n_pre=0 n_req=47 n_rd=188 n_write=0 bw_util=0.001044
n_activity=600 dram_eff=0.6267
bk0: 0a 360105i bk1: 0a 360106i bk2: 36a 360019i bk3: 36a 359973i bk4: 56a 359991i bk5: 56a 359912i bk6: 0a 360103i bk7: 0a 360104i bk8: 4a 360084i bk9: 0a 360102i bk10: 0a 360102i bk11: 0a 360104i bk12: 0a 360104i bk13: 0a 360104i bk14: 0a 360104i bk15: 0a 360105i 
dram_util_bins: 0 0 0 0 0 0 0 0 0 0
dram_eff_bins: 0 0 0 0 0 0 0 0 0 0
mrqq: max=2 avg=0.000277698
Memory Partition 8: 
Cache L2_bank_016:
MSHR contents

Cache L2_bank_017:
MSHR contents

In Dram Latency Queue (total = 0): 
DRAM[8]: 16 bks, busW=4 BL=8 CL=12, tRRD=2 tCCD=6, tRCD=12 tRAS=28 tRP=12 tRC=40
n_cmd=360104 n_nop=359904 n_act=6 n_pre=1 n_req=49 n_rd=192 n_write=1 bw_util=0.001072
n_activity=652 dram_eff=0.592
bk0: 0a 360104i bk1: 0a 360107i bk2: 40a 359991i bk3: 36a 359974i bk4: 56a 359982i bk5: 56a 359915i bk6: 0a 360103i bk7: 0a 360103i bk8: 0a 360103i bk9: 0a 360105i bk10: 4a 360085i bk11: 0a 360103i bk12: 0a 360103i bk13: 0a 360104i bk14: 0a 360104i bk15: 0a 360104i 
dram_util_bins: 0 0 0 0 0 0 0 0 0 0
dram_eff_bins: 0 0 0 0 0 0 0 0 0 0
mrqq: max=2 avg=0.000297136
Memory Partition 9: 
Cache L2_bank_018:
MSHR contents

Cache L2_bank_019:
MSHR contents

In Dram Latency Queue (total = 0): 
DRAM[9]: 16 bks, busW=4 BL=8 CL=12, tRRD=2 tCCD=6, tRCD=12 tRAS=28 tRP=12 tRC=40
n_cmd=360104 n_nop=359911 n_act=5 n_pre=0 n_req=47 n_rd=188 n_write=0 bw_util=0.001044
n_activity=600 dram_eff=0.6267
bk0: 0a 360104i bk1: 0a 360106i bk2: 36a 360020i bk3: 36a 359981i bk4: 56a 359982i bk5: 56a 359915i bk6: 0a 360104i bk7: 0a 360104i bk8: 4a 360084i bk9: 0a 360103i bk10: 0a 360103i bk11: 0a 360103i bk12: 0a 360103i bk13: 0a 360104i bk14: 0a 360104i bk15: 0a 360104i 
dram_util_bins: 0 0 0 0 0 0 0 0 0 0
dram_eff_bins: 0 0 0 0 0 0 0 0 0 0
mrqq: max=2 avg=0.000236043
Memory Partition 10: 
Cache L2_bank_020:
MSHR contents

Cache L2_bank_021:
MSHR contents

In Dram Latency Queue (total = 0): 
DRAM[10]: 16 bks, busW=4 BL=8 CL=12, tRRD=2 tCCD=6, tRCD=12 tRAS=28 tRP=12 tRC=40
n_cmd=360104 n_nop=359898 n_act=7 n_pre=0 n_req=52 n_rd=196 n_write=3 bw_util=0.001105
n_activity=680 dram_eff=0.5853
bk0: 0a 360103i bk1: 0a 360106i bk2: 36a 360028i bk3: 36a 359977i bk4: 56a 359981i bk5: 56a 359920i bk6: 4a 360077i bk7: 0a 360102i bk8: 0a 360102i bk9: 0a 360105i bk10: 4a 360079i bk11: 0a 360103i bk12: 0a 360103i bk13: 0a 360105i bk14: 0a 360105i bk15: 4a 360079i 
dram_util_bins: 0 0 0 0 0 0 0 0 0 0
dram_eff_bins: 0 0 0 0 0 0 0 0 0 0
mrqq: max=2 avg=0.000291582

========= L2 cache stats =========
L2_cache_bank[0]: Access = 120, Miss = 24, Miss_rate = 0.200, Pending_hits = 96, Reservation_fails = 0
L2_cache_bank[1]: Access = 92, Miss = 23, Miss_rate = 0.250, Pending_hits = 69, Reservation_fails = 0
L2_cache_bank[2]: Access = 118, Miss = 25, Miss_rate = 0.212, Pending_hits = 69, Reservation_fails = 0
L2_cache_bank[3]: Access = 94, Miss = 25, Miss_rate = 0.266, Pending_hits = 69, Reservation_fails = 0
L2_cache_bank[4]: Access = 94, Miss = 25, Miss_rate = 0.266, Pending_hits = 69, Reservation_fails = 0
L2_cache_bank[5]: Access = 93, Miss = 24, Miss_rate = 0.258, Pending_hits = 69, Reservation_fails = 0
L2_cache_bank[6]: Access = 99, Miss = 26, Miss_rate = 0.263, Pending_hits = 72, Reservation_fails = 0
L2_cache_bank[7]: Access = 98, Miss = 26, Miss_rate = 0.265, Pending_hits = 72, Reservation_fails = 0
L2_cache_bank[8]: Access = 125, Miss = 26, Miss_rate = 0.208, Pending_hits = 99, Reservation_fails = 0
L2_cache_bank[9]: Access = 125, Miss = 26, Miss_rate = 0.208, Pending_hits = 99, Reservation_fails = 0
L2_cache_bank[10]: Access = 100, Miss = 28, Miss_rate = 0.280, Pending_hits = 72, Reservation_fails = 0
L2_cache_bank[11]: Access = 124, Miss = 25, Miss_rate = 0.202, Pending_hits = 79, Reservation_fails = 0
L2_cache_bank[12]: Access = 93, Miss = 24, Miss_rate = 0.258, Pending_hits = 69, Reservation_fails = 0
L2_cache_bank[13]: Access = 95, Miss = 26, Miss_rate = 0.274, Pending_hits = 69, Reservation_fails = 0
L2_cache_bank[14]: Access = 93, Miss = 24, Miss_rate = 0.258, Pending_hits = 69, Reservation_fails = 0
L2_cache_bank[15]: Access = 92, Miss = 23, Miss_rate = 0.250, Pending_hits = 69, Reservation_fails = 0
L2_cache_bank[16]: Access = 94, Miss = 25, Miss_rate = 0.266, Pending_hits = 69, Reservation_fails = 0
L2_cache_bank[17]: Access = 92, Miss = 23, Miss_rate = 0.250, Pending_hits = 69, Reservation_fails = 0
L2_cache_bank[18]: Access = 100, Miss = 24, Miss_rate = 0.240, Pending_hits = 69, Reservation_fails = 0
L2_cache_bank[19]: Access = 92, Miss = 23, Miss_rate = 0.250, Pending_hits = 69, Reservation_fails = 0
L2_cache_bank[20]: Access = 94, Miss = 25, Miss_rate = 0.266, Pending_hits = 69, Reservation_fails = 0
L2_cache_bank[21]: Access = 93, Miss = 24, Miss_rate = 0.258, Pending_hits = 69, Reservation_fails = 0
L2_total_cache_accesses = 2220
L2_total_cache_misses = 544
L2_total_cache_miss_rate = 0.2450
L2_total_cache_pending_hits = 1624
L2_total_cache_reservation_fails = 0
L2_total_cache_breakdown:
	L2_cache_stats_breakdown[GLOBAL_ACC_R][HIT] = 31
	L2_cache_stats_breakdown[GLOBAL_ACC_R][HIT_RESERVED] = 1536
	L2_cache_stats_breakdown[GLOBAL_ACC_R][MISS] = 523
	L2_cache_stats_breakdown[GLOBAL_ACC_R][RESERVATION_FAIL] = 0
	L2_cache_stats_breakdown[LOCAL_ACC_R][HIT] = 0
	L2_cache_stats_breakdown[LOCAL_ACC_R][HIT_RESERVED] = 0
	L2_cache_stats_breakdown[LOCAL_ACC_R][MISS] = 0
	L2_cache_stats_breakdown[LOCAL_ACC_R][RESERVATION_FAIL] = 0
	L2_cache_stats_breakdown[CONST_ACC_R][HIT] = 0
	L2_cache_stats_breakdown[CONST_ACC_R][HIT_RESERVED] = 27
	L2_cache_stats_breakdown[CONST_ACC_R][MISS] = 1
	L2_cache_stats_breakdown[CONST_ACC_R][RESERVATION_FAIL] = 0
	L2_cache_stats_breakdown[TEXTURE_ACC_R][HIT] = 0
	L2_cache_stats_breakdown[TEXTURE_ACC_R][HIT_RESERVED] = 0
	L2_cache_stats_breakdown[TEXTURE_ACC_R][MISS] = 0
	L2_cache_stats_breakdown[TEXTURE_ACC_R][RESERVATION_FAIL] = 0
	L2_cache_stats_breakdown[GLOBAL_ACC_W][HIT] = 1
	L2_cache_stats_breakdown[GLOBAL_ACC_W][HIT_RESERVED] = 0
	L2_cache_stats_breakdown[GLOBAL_ACC_W][MISS] = 16
	L2_cache_stats_breakdown[GLOBAL_ACC_W][RESERVATION_FAIL] = 0
	L2_cache_stats_breakdown[LOCAL_ACC_W][HIT] = 0
	L2_cache_stats_breakdown[LOCAL_ACC_W][HIT_RESERVED] = 0
	L2_cache_stats_breakdown[LOCAL_ACC_W][MISS] = 0
	L2_cache_stats_breakdown[LOCAL_ACC_W][RESERVATION_FAIL] = 0
	L2_cache_stats_breakdown[L1_WRBK_ACC][HIT] = 0
	L2_cache_stats_breakdown[L1_WRBK_ACC][HIT_RESERVED] = 0
	L2_cache_stats_breakdown[L1_WRBK_ACC][MISS] = 0
	L2_cache_stats_breakdown[L1_WRBK_ACC][RESERVATION_FAIL] = 0
	L2_cache_stats_breakdown[L2_WRBK_ACC][HIT] = 0
	L2_cache_stats_breakdown[L2_WRBK_ACC][HIT_RESERVED] = 0
	L2_cache_stats_breakdown[L2_WRBK_ACC][MISS] = 0
	L2_cache_stats_breakdown[L2_WRBK_ACC][RESERVATION_FAIL] = 0
	L2_cache_stats_breakdown[INST_ACC_R][HIT] = 20
	L2_cache_stats_breakdown[INST_ACC_R][HIT_RESERVED] = 61
	L2_cache_stats_breakdown[INST_ACC_R][MISS] = 4
	L2_cache_stats_breakdown[INST_ACC_R][RESERVATION_FAIL] = 0
	L2_cache_stats_breakdown[L1_WR_ALLOC_R][HIT] = 0
	L2_cache_stats_breakdown[L1_WR_ALLOC_R][HIT_RESERVED] = 0
	L2_cache_stats_breakdown[L1_WR_ALLOC_R][MISS] = 0
	L2_cache_stats_breakdown[L1_WR_ALLOC_R][RESERVATION_FAIL] = 0
	L2_cache_stats_breakdown[L2_WR_ALLOC_R][HIT] = 0
	L2_cache_stats_breakdown[L2_WR_ALLOC_R][HIT_RESERVED] = 0
	L2_cache_stats_breakdown[L2_WR_ALLOC_R][MISS] = 0
	L2_cache_stats_breakdown[L2_WR_ALLOC_R][RESERVATION_FAIL] = 0
	L2_cache_stats_breakdown[GLOBAL_ACC_R][TOTAL_ACCESS] = 2090
	L2_cache_stats_breakdown[CONST_ACC_R][TOTAL_ACCESS] = 28
	L2_cache_stats_breakdown[GLOBAL_ACC_W][TOTAL_ACCESS] = 17
	L2_cache_stats_breakdown[INST_ACC_R][TOTAL_ACCESS] = 85
L2_cache_data_port_util = 0.000
L2_cache_fill_port_util = 0.001

icnt_total_pkts_mem_to_simt=4706
icnt_total_pkts_simt_to_mem=2237
LD_mem_lat_dist  0 0 0 0 0 0 0 0 0 0 0 0 0 0 0 0 0 0 0 0 0 0 0 0 0 0 0
ST_mem_lat_dist  0 0 0 0 0 0 0 0 0 0 0 0 0 0 0 0 0 0 0 0 0 0 0 0 0 0 0
----------------------------Interconnect-DETAILS--------------------------------
Class 0:
Packet latency average = 11.1315
	minimum = 6
	maximum = 60
Network latency average = 10.7151
	minimum = 6
	maximum = 60
Slowest packet = 27
Flit latency average = 11.3022
	minimum = 6
	maximum = 60
Slowest flit = 27
Fragmentation average = 0
	minimum = 0
	maximum = 0
Injected packet rate average = 0.000228946
	minimum = 0.000175319 (at node 9)
	maximum = 0.000371264 (at node 1)
Accepted packet rate average = 0.000228946
	minimum = 0.000175319 (at node 9)
	maximum = 0.000371264 (at node 1)
Injected flit rate average = 0.000358012
	minimum = 0.000175319 (at node 9)
	maximum = 0.000861127 (at node 37)
Accepted flit rate average= 0.000358012
	minimum = 0.000237197 (at node 29)
	maximum = 0.000732215 (at node 1)
Injected packet length average = 1.56374
Accepted packet length average = 1.56374
Total in-flight flits = 0 (0 measured)
====== Overall Traffic Statistics ======
====== Traffic class 0 ======
Packet latency average = 11.1315 (1 samples)
	minimum = 6 (1 samples)
	maximum = 60 (1 samples)
Network latency average = 10.7151 (1 samples)
	minimum = 6 (1 samples)
	maximum = 60 (1 samples)
Flit latency average = 11.3022 (1 samples)
	minimum = 6 (1 samples)
	maximum = 60 (1 samples)
Fragmentation average = 0 (1 samples)
	minimum = 0 (1 samples)
	maximum = 0 (1 samples)
Injected packet rate average = 0.000228946 (1 samples)
	minimum = 0.000175319 (1 samples)
	maximum = 0.000371264 (1 samples)
Accepted packet rate average = 0.000228946 (1 samples)
	minimum = 0.000175319 (1 samples)
	maximum = 0.000371264 (1 samples)
Injected flit rate average = 0.000358012 (1 samples)
	minimum = 0.000175319 (1 samples)
	maximum = 0.000861127 (1 samples)
Accepted flit rate average = 0.000358012 (1 samples)
	minimum = 0.000237197 (1 samples)
	maximum = 0.000732215 (1 samples)
Injected packet size average = 1.56374 (1 samples)
Accepted packet size average = 1.56374 (1 samples)
Hops average = 1 (1 samples)
----------------------------END-of-Interconnect-DETAILS-------------------------


gpgpu_simulation_time = 0 days, 0 hrs, 3 min, 35 sec (215 sec)
gpgpu_simulation_rate = 5792 (inst/sec)
gpgpu_simulation_rate = 1947 (cycle/sec)

GPGPU-Sim PTX: cudaLaunch for 0x0x401649 (mode=performance simulation) on stream 0
GPGPU-Sim PTX: pushing kernel '_Z7Kernel2PbS_S_S_i' to stream 0, gridDim= (128,1,1) blockDim = (512,1,1) 
GPGPU-Sim uArch: Shader 26 bind to kernel 2 '_Z7Kernel2PbS_S_S_i'
GPGPU-Sim uArch: CTA/core = 4, limited by: threads
GPGPU-Sim uArch: Shader 27 bind to kernel 2 '_Z7Kernel2PbS_S_S_i'
GPGPU-Sim uArch: Shader 0 bind to kernel 2 '_Z7Kernel2PbS_S_S_i'
GPGPU-Sim uArch: Shader 1 bind to kernel 2 '_Z7Kernel2PbS_S_S_i'
GPGPU-Sim uArch: Shader 2 bind to kernel 2 '_Z7Kernel2PbS_S_S_i'
GPGPU-Sim uArch: Shader 3 bind to kernel 2 '_Z7Kernel2PbS_S_S_i'
GPGPU-Sim uArch: Shader 4 bind to kernel 2 '_Z7Kernel2PbS_S_S_i'
GPGPU-Sim uArch: Shader 5 bind to kernel 2 '_Z7Kernel2PbS_S_S_i'
GPGPU-Sim uArch: Shader 6 bind to kernel 2 '_Z7Kernel2PbS_S_S_i'
GPGPU-Sim uArch: Shader 7 bind to kernel 2 '_Z7Kernel2PbS_S_S_i'
GPGPU-Sim uArch: Shader 8 bind to kernel 2 '_Z7Kernel2PbS_S_S_i'
GPGPU-Sim uArch: Shader 9 bind to kernel 2 '_Z7Kernel2PbS_S_S_i'
GPGPU-Sim uArch: Shader 10 bind to kernel 2 '_Z7Kernel2PbS_S_S_i'
GPGPU-Sim uArch: Shader 11 bind to kernel 2 '_Z7Kernel2PbS_S_S_i'
GPGPU-Sim uArch: Shader 12 bind to kernel 2 '_Z7Kernel2PbS_S_S_i'
GPGPU-Sim uArch: Shader 13 bind to kernel 2 '_Z7Kernel2PbS_S_S_i'
GPGPU-Sim uArch: Shader 14 bind to kernel 2 '_Z7Kernel2PbS_S_S_i'
GPGPU-Sim uArch: Shader 15 bind to kernel 2 '_Z7Kernel2PbS_S_S_i'
GPGPU-Sim uArch: Shader 16 bind to kernel 2 '_Z7Kernel2PbS_S_S_i'
GPGPU-Sim uArch: Shader 17 bind to kernel 2 '_Z7Kernel2PbS_S_S_i'
GPGPU-Sim uArch: Shader 18 bind to kernel 2 '_Z7Kernel2PbS_S_S_i'
GPGPU-Sim uArch: Shader 19 bind to kernel 2 '_Z7Kernel2PbS_S_S_i'
GPGPU-Sim uArch: Shader 20 bind to kernel 2 '_Z7Kernel2PbS_S_S_i'
GPGPU-Sim uArch: Shader 21 bind to kernel 2 '_Z7Kernel2PbS_S_S_i'
GPGPU-Sim uArch: Shader 22 bind to kernel 2 '_Z7Kernel2PbS_S_S_i'
GPGPU-Sim uArch: Shader 23 bind to kernel 2 '_Z7Kernel2PbS_S_S_i'
GPGPU-Sim uArch: Shader 24 bind to kernel 2 '_Z7Kernel2PbS_S_S_i'
GPGPU-Sim uArch: Shader 25 bind to kernel 2 '_Z7Kernel2PbS_S_S_i'
Destroy streams for kernel 2: size 0
kernel_name = _Z7Kernel2PbS_S_S_i 
kernel_launch_uid = 2 
gpu_sim_cycle = 50528
gpu_sim_insn = 1114192
gpu_ipc =      22.0510
gpu_tot_sim_cycle = 691297
gpu_tot_sim_insn = 2359568
gpu_tot_ipc =       3.4132
gpu_tot_issued_cta = 256
max_total_param_size = 0
gpu_stall_dramfull = 0
gpu_stall_icnt2sh    = 838
partiton_reqs_in_parallel = 1111616
partiton_reqs_in_parallel_total    = 4266526
partiton_level_parallism =      22.0000
partiton_level_parallism_total  =       7.7798
partiton_reqs_in_parallel_util = 1111616
partiton_reqs_in_parallel_util_total    = 4266526
gpu_sim_cycle_parition_util = 50528
gpu_tot_sim_cycle_parition_util    = 193933
partiton_level_parallism_util =      22.0000
partiton_level_parallism_util_total  =      22.0000
partiton_replys_in_parallel = 2136
partiton_replys_in_parallel_total    = 2220
L2_BW  =       4.0069 GB/Sec
L2_BW_total  =       0.5973 GB/Sec
gpu_total_sim_rate=7420

========= Core cache stats =========
L1I_cache:
	L1I_total_cache_accesses = 43152
	L1I_total_cache_misses = 4635
	L1I_total_cache_miss_rate = 0.1074
	L1I_total_cache_pending_hits = 0
	L1I_total_cache_reservation_fails = 13692
L1D_cache:
	L1D_cache_core[0]: Access = 0, Miss = 0, Miss_rate = -nan, Pending_hits = 0, Reservation_fails = 0
	L1D_cache_core[1]: Access = 0, Miss = 0, Miss_rate = -nan, Pending_hits = 0, Reservation_fails = 0
	L1D_cache_core[2]: Access = 0, Miss = 0, Miss_rate = -nan, Pending_hits = 0, Reservation_fails = 0
	L1D_cache_core[3]: Access = 0, Miss = 0, Miss_rate = -nan, Pending_hits = 0, Reservation_fails = 0
	L1D_cache_core[4]: Access = 0, Miss = 0, Miss_rate = -nan, Pending_hits = 0, Reservation_fails = 0
	L1D_cache_core[5]: Access = 0, Miss = 0, Miss_rate = -nan, Pending_hits = 0, Reservation_fails = 0
	L1D_cache_core[6]: Access = 0, Miss = 0, Miss_rate = -nan, Pending_hits = 0, Reservation_fails = 0
	L1D_cache_core[7]: Access = 0, Miss = 0, Miss_rate = -nan, Pending_hits = 0, Reservation_fails = 0
	L1D_cache_core[8]: Access = 0, Miss = 0, Miss_rate = -nan, Pending_hits = 0, Reservation_fails = 0
	L1D_cache_core[9]: Access = 0, Miss = 0, Miss_rate = -nan, Pending_hits = 0, Reservation_fails = 0
	L1D_cache_core[10]: Access = 0, Miss = 0, Miss_rate = -nan, Pending_hits = 0, Reservation_fails = 0
	L1D_cache_core[11]: Access = 0, Miss = 0, Miss_rate = -nan, Pending_hits = 0, Reservation_fails = 0
	L1D_cache_core[12]: Access = 0, Miss = 0, Miss_rate = -nan, Pending_hits = 0, Reservation_fails = 0
	L1D_cache_core[13]: Access = 0, Miss = 0, Miss_rate = -nan, Pending_hits = 0, Reservation_fails = 0
	L1D_cache_core[14]: Access = 0, Miss = 0, Miss_rate = -nan, Pending_hits = 0, Reservation_fails = 0
	L1D_cache_core[15]: Access = 0, Miss = 0, Miss_rate = -nan, Pending_hits = 0, Reservation_fails = 0
	L1D_cache_core[16]: Access = 0, Miss = 0, Miss_rate = -nan, Pending_hits = 0, Reservation_fails = 0
	L1D_cache_core[17]: Access = 0, Miss = 0, Miss_rate = -nan, Pending_hits = 0, Reservation_fails = 0
	L1D_cache_core[18]: Access = 0, Miss = 0, Miss_rate = -nan, Pending_hits = 0, Reservation_fails = 0
	L1D_cache_core[19]: Access = 0, Miss = 0, Miss_rate = -nan, Pending_hits = 0, Reservation_fails = 0
	L1D_cache_core[20]: Access = 0, Miss = 0, Miss_rate = -nan, Pending_hits = 0, Reservation_fails = 0
	L1D_cache_core[21]: Access = 0, Miss = 0, Miss_rate = -nan, Pending_hits = 0, Reservation_fails = 0
	L1D_cache_core[22]: Access = 0, Miss = 0, Miss_rate = -nan, Pending_hits = 0, Reservation_fails = 0
	L1D_cache_core[23]: Access = 0, Miss = 0, Miss_rate = -nan, Pending_hits = 0, Reservation_fails = 0
	L1D_cache_core[24]: Access = 0, Miss = 0, Miss_rate = -nan, Pending_hits = 0, Reservation_fails = 0
	L1D_cache_core[25]: Access = 0, Miss = 0, Miss_rate = -nan, Pending_hits = 0, Reservation_fails = 0
	L1D_cache_core[26]: Access = 0, Miss = 0, Miss_rate = -nan, Pending_hits = 0, Reservation_fails = 0
	L1D_cache_core[27]: Access = 0, Miss = 0, Miss_rate = -nan, Pending_hits = 0, Reservation_fails = 0
	L1D_total_cache_accesses = 0
	L1D_total_cache_misses = 0
	L1D_total_cache_pending_hits = 0
	L1D_total_cache_reservation_fails = 0
	L1D_cache_data_port_util = 0.000
	L1D_cache_fill_port_util = 0.000
L1C_cache:
	L1C_total_cache_accesses = 24576
	L1C_total_cache_misses = 1792
	L1C_total_cache_miss_rate = 0.0729
	L1C_total_cache_pending_hits = 0
	L1C_total_cache_reservation_fails = 4886
L1T_cache:
	L1T_total_cache_accesses = 0
	L1T_total_cache_misses = 0
	L1T_total_cache_pending_hits = 0
	L1T_total_cache_reservation_fails = 0

Total_core_cache_stats:
	Total_core_cache_stats_breakdown[GLOBAL_ACC_R][HIT] = 0
	Total_core_cache_stats_breakdown[GLOBAL_ACC_R][HIT_RESERVED] = 0
	Total_core_cache_stats_breakdown[GLOBAL_ACC_R][MISS] = 0
	Total_core_cache_stats_breakdown[GLOBAL_ACC_R][RESERVATION_FAIL] = 0
	Total_core_cache_stats_breakdown[LOCAL_ACC_R][HIT] = 0
	Total_core_cache_stats_breakdown[LOCAL_ACC_R][HIT_RESERVED] = 0
	Total_core_cache_stats_breakdown[LOCAL_ACC_R][MISS] = 0
	Total_core_cache_stats_breakdown[LOCAL_ACC_R][RESERVATION_FAIL] = 0
	Total_core_cache_stats_breakdown[CONST_ACC_R][HIT] = 22784
	Total_core_cache_stats_breakdown[CONST_ACC_R][HIT_RESERVED] = 0
	Total_core_cache_stats_breakdown[CONST_ACC_R][MISS] = 1792
	Total_core_cache_stats_breakdown[CONST_ACC_R][RESERVATION_FAIL] = 4886
	Total_core_cache_stats_breakdown[TEXTURE_ACC_R][HIT] = 0
	Total_core_cache_stats_breakdown[TEXTURE_ACC_R][HIT_RESERVED] = 0
	Total_core_cache_stats_breakdown[TEXTURE_ACC_R][MISS] = 0
	Total_core_cache_stats_breakdown[TEXTURE_ACC_R][RESERVATION_FAIL] = 0
	Total_core_cache_stats_breakdown[GLOBAL_ACC_W][HIT] = 0
	Total_core_cache_stats_breakdown[GLOBAL_ACC_W][HIT_RESERVED] = 0
	Total_core_cache_stats_breakdown[GLOBAL_ACC_W][MISS] = 0
	Total_core_cache_stats_breakdown[GLOBAL_ACC_W][RESERVATION_FAIL] = 0
	Total_core_cache_stats_breakdown[LOCAL_ACC_W][HIT] = 0
	Total_core_cache_stats_breakdown[LOCAL_ACC_W][HIT_RESERVED] = 0
	Total_core_cache_stats_breakdown[LOCAL_ACC_W][MISS] = 0
	Total_core_cache_stats_breakdown[LOCAL_ACC_W][RESERVATION_FAIL] = 0
	Total_core_cache_stats_breakdown[L1_WRBK_ACC][HIT] = 0
	Total_core_cache_stats_breakdown[L1_WRBK_ACC][HIT_RESERVED] = 0
	Total_core_cache_stats_breakdown[L1_WRBK_ACC][MISS] = 0
	Total_core_cache_stats_breakdown[L1_WRBK_ACC][RESERVATION_FAIL] = 0
	Total_core_cache_stats_breakdown[L2_WRBK_ACC][HIT] = 0
	Total_core_cache_stats_breakdown[L2_WRBK_ACC][HIT_RESERVED] = 0
	Total_core_cache_stats_breakdown[L2_WRBK_ACC][MISS] = 0
	Total_core_cache_stats_breakdown[L2_WRBK_ACC][RESERVATION_FAIL] = 0
	Total_core_cache_stats_breakdown[INST_ACC_R][HIT] = 38517
	Total_core_cache_stats_breakdown[INST_ACC_R][HIT_RESERVED] = 0
	Total_core_cache_stats_breakdown[INST_ACC_R][MISS] = 4635
	Total_core_cache_stats_breakdown[INST_ACC_R][RESERVATION_FAIL] = 13692
	Total_core_cache_stats_breakdown[L1_WR_ALLOC_R][HIT] = 0
	Total_core_cache_stats_breakdown[L1_WR_ALLOC_R][HIT_RESERVED] = 0
	Total_core_cache_stats_breakdown[L1_WR_ALLOC_R][MISS] = 0
	Total_core_cache_stats_breakdown[L1_WR_ALLOC_R][RESERVATION_FAIL] = 0
	Total_core_cache_stats_breakdown[L2_WR_ALLOC_R][HIT] = 0
	Total_core_cache_stats_breakdown[L2_WR_ALLOC_R][HIT_RESERVED] = 0
	Total_core_cache_stats_breakdown[L2_WR_ALLOC_R][MISS] = 0
	Total_core_cache_stats_breakdown[L2_WR_ALLOC_R][RESERVATION_FAIL] = 0
	Total_core_cache_stats_breakdown[CONST_ACC_R][TOTAL_ACCESS] = 24576
	Total_core_cache_stats_breakdown[INST_ACC_R][TOTAL_ACCESS] = 43152
Shader 0 warp_id issue ditsribution:
warp_id:
0, 1, 2, 3, 4, 5, 6, 7, 8, 9, 10, 11, 12, 13, 14, 15, 16, 17, 18, 19, 20, 21, 22, 23, 24, 25, 26, 27, 28, 29, 30, 31, 32, 33, 34, 35, 36, 37, 38, 39, 40, 41, 42, 43, 44, 45, 46, 47, 48, 49, 50, 51, 52, 53, 54, 55, 56, 57, 58, 59, 60, 61, 62, 63, 
distro:
67, 67, 66, 67, 66, 67, 66, 67, 67, 67, 67, 67, 67, 67, 67, 67, 44, 44, 44, 44, 44, 44, 44, 44, 44, 44, 44, 44, 44, 44, 44, 44, 44, 44, 44, 44, 44, 44, 44, 44, 44, 44, 44, 44, 44, 44, 44, 44, 44, 44, 44, 44, 44, 44, 44, 44, 44, 44, 44, 44, 44, 44, 44, 44, 
gpgpu_n_tot_thrd_icount = 2499680
gpgpu_n_tot_w_icount = 78115
gpgpu_n_stall_shd_mem = 4886
gpgpu_n_mem_read_local = 0
gpgpu_n_mem_write_local = 0
gpgpu_n_mem_read_global = 4138
gpgpu_n_mem_write_global = 49
gpgpu_n_mem_texture = 0
gpgpu_n_mem_const = 28
gpgpu_n_load_insn  = 131114
gpgpu_n_store_insn = 49
gpgpu_n_shmem_insn = 0
gpgpu_n_tex_insn = 0
gpgpu_n_const_mem_insn = 0
gpgpu_n_param_mem_insn = 786432
gpgpu_n_shmem_bkconflict = 0
gpgpu_n_cache_bkconflict = 0
gpgpu_n_intrawarp_mshr_merge = 0
gpgpu_n_cmem_portconflict = 4886
gpgpu_stall_shd_mem[c_mem][bk_conf] = 4886
gpgpu_stall_shd_mem[c_mem][mshr_rc] = 0
gpgpu_stall_shd_mem[c_mem][icnt_rc] = 0
gpgpu_stall_shd_mem[c_mem][data_port_stall] = 0
gpgpu_stall_shd_mem[t_mem][mshr_rc] = 0
gpgpu_stall_shd_mem[t_mem][icnt_rc] = 0
gpgpu_stall_shd_mem[t_mem][data_port_stall] = 0
gpgpu_stall_shd_mem[s_mem][bk_conf] = 0
gpgpu_stall_shd_mem[gl_mem][bk_conf] = 0
gpgpu_stall_shd_mem[gl_mem][coal_stall] = 0
gpgpu_stall_shd_mem[gl_mem][data_port_stall] = 0
gpgpu_stall_shd_mem[g_mem_ld][mshr_rc] = 0
gpgpu_stall_shd_mem[g_mem_ld][icnt_rc] = 0
gpgpu_stall_shd_mem[g_mem_ld][wb_icnt_rc] = 0
gpgpu_stall_shd_mem[g_mem_ld][wb_rsrv_fail] = 0
gpgpu_stall_shd_mem[g_mem_st][mshr_rc] = 0
gpgpu_stall_shd_mem[g_mem_st][icnt_rc] = 0
gpgpu_stall_shd_mem[g_mem_st][wb_icnt_rc] = 0
gpgpu_stall_shd_mem[g_mem_st][wb_rsrv_fail] = 0
gpgpu_stall_shd_mem[l_mem_ld][mshr_rc] = 0
gpgpu_stall_shd_mem[l_mem_ld][icnt_rc] = 0
gpgpu_stall_shd_mem[l_mem_ld][wb_icnt_rc] = 0
gpgpu_stall_shd_mem[l_mem_ld][wb_rsrv_fail] = 0
gpgpu_stall_shd_mem[l_mem_st][mshr_rc] = 0
gpgpu_stall_shd_mem[l_mem_st][icnt_rc] = 0
gpgpu_stall_shd_mem[l_mem_ld][wb_icnt_rc] = 0
gpgpu_stall_shd_mem[l_mem_ld][wb_rsrv_fail] = 0
gpu_reg_bank_conflict_stalls = 0
Warp Occupancy Distribution:
[...]
F:  2822498----T:  2825103 	 St: c0223000 Sz: 4096 	 Sm: 0 	 T: memcpy_h2d(1.758947)
F:  2825103----T:  2827708 	 St: c021e000 Sz: 4096 	 Sm: 0 	 T: memcpy_h2d(1.758947)
F:  2827708----T:  2830313 	 St: c01b6000 Sz: 4096 	 Sm: 0 	 T: memcpy_h2d(1.758947)
F:  2830313----T:  2832918 	 St: c0228000 Sz: 4096 	 Sm: 0 	 T: memcpy_h2d(1.758947)
F:  2832918----T:  2835523 	 St: c0222000 Sz: 4096 	 Sm: 0 	 T: memcpy_h2d(1.758947)
F:  2835523----T:  2838128 	 St: c0293000 Sz: 4096 	 Sm: 0 	 T: memcpy_h2d(1.758947)
F:  2838128----T:  2840733 	 St: c022b000 Sz: 4096 	 Sm: 0 	 T: memcpy_h2d(1.758947)
F:  2840733----T:  2843338 	 St: c021d000 Sz: 4096 	 Sm: 0 	 T: memcpy_h2d(1.758947)
F:  2843338----T:  2845943 	 St: c00c2000 Sz: 4096 	 Sm: 0 	 T: memcpy_h2d(1.758947)
F:  2845943----T:  2848548 	 St: c00c3000 Sz: 4096 	 Sm: 0 	 T: memcpy_h2d(1.758947)
F:  2848548----T:  2851153 	 St: c00e8000 Sz: 4096 	 Sm: 0 	 T: memcpy_h2d(1.758947)
F:  2851153----T:  2853758 	 St: c003f000 Sz: 4096 	 Sm: 0 	 T: memcpy_h2d(1.758947)
F:  2853758----T:  2856363 	 St: c0107000 Sz: 4096 	 Sm: 0 	 T: memcpy_h2d(1.758947)
F:  2856363----T:  2858968 	 St: c0108000 Sz: 4096 	 Sm: 0 	 T: memcpy_h2d(1.758947)
F:  2858968----T:  2861573 	 St: c015d000 Sz: 4096 	 Sm: 0 	 T: memcpy_h2d(1.758947)
F:  2861573----T:  2864178 	 St: c00bc000 Sz: 4096 	 Sm: 0 	 T: memcpy_h2d(1.758947)
F:  2864178----T:  2866783 	 St: c00be000 Sz: 4096 	 Sm: 0 	 T: memcpy_h2d(1.758947)
F:  2866783----T:  2869388 	 St: c00de000 Sz: 4096 	 Sm: 0 	 T: memcpy_h2d(1.758947)
F:  2869388----T:  2871993 	 St: c00ca000 Sz: 4096 	 Sm: 0 	 T: memcpy_h2d(1.758947)
F:  2871993----T:  2874598 	 St: c01ae000 Sz: 4096 	 Sm: 0 	 T: memcpy_h2d(1.758947)
F:  2874598----T:  2877203 	 St: c00c9000 Sz: 4096 	 Sm: 0 	 T: memcpy_h2d(1.758947)
F:  2877203----T:  2879808 	 St: c02a2000 Sz: 4096 	 Sm: 0 	 T: memcpy_h2d(1.758947)
F:  2879808----T:  2882413 	 St: c00c8000 Sz: 4096 	 Sm: 0 	 T: memcpy_h2d(1.758947)
F:  2882413----T:  2885018 	 St: c00f0000 Sz: 4096 	 Sm: 0 	 T: memcpy_h2d(1.758947)
F:  2885018----T:  2887623 	 St: c00ef000 Sz: 4096 	 Sm: 0 	 T: memcpy_h2d(1.758947)
F:  2887623----T:  2890228 	 St: c0131000 Sz: 4096 	 Sm: 0 	 T: memcpy_h2d(1.758947)
F:  2890228----T:  2892833 	 St: c0103000 Sz: 4096 	 Sm: 0 	 T: memcpy_h2d(1.758947)
F:  2892833----T:  2895438 	 St: c0134000 Sz: 4096 	 Sm: 0 	 T: memcpy_h2d(1.758947)
F:  2895438----T:  2898043 	 St: c0196000 Sz: 4096 	 Sm: 0 	 T: memcpy_h2d(1.758947)
F:  2898043----T:  2900648 	 St: c00f7000 Sz: 4096 	 Sm: 0 	 T: memcpy_h2d(1.758947)
F:  2900648----T:  2903253 	 St: c0250000 Sz: 4096 	 Sm: 0 	 T: memcpy_h2d(1.758947)
F:  2903253----T:  2905858 	 St: c0149000 Sz: 4096 	 Sm: 0 	 T: memcpy_h2d(1.758947)
F:  2905858----T:  2908463 	 St: c011c000 Sz: 4096 	 Sm: 0 	 T: memcpy_h2d(1.758947)
F:  2908463----T:  2911068 	 St: c011d000 Sz: 4096 	 Sm: 0 	 T: memcpy_h2d(1.758947)
F:  2911068----T:  2913673 	 St: c005c000 Sz: 4096 	 Sm: 0 	 T: memcpy_h2d(1.758947)
F:  2913673----T:  2916278 	 St: c0119000 Sz: 4096 	 Sm: 0 	 T: memcpy_h2d(1.758947)
F:  2916278----T:  2918883 	 St: c0154000 Sz: 4096 	 Sm: 0 	 T: memcpy_h2d(1.758947)
F:  2918883----T:  2921488 	 St: c0153000 Sz: 4096 	 Sm: 0 	 T: memcpy_h2d(1.758947)
F:  2921488----T:  2924093 	 St: c00e7000 Sz: 4096 	 Sm: 0 	 T: memcpy_h2d(1.758947)
F:  2924093----T:  2926698 	 St: c0152000 Sz: 4096 	 Sm: 0 	 T: memcpy_h2d(1.758947)
F:  2926698----T:  2929303 	 St: c012e000 Sz: 4096 	 Sm: 0 	 T: memcpy_h2d(1.758947)
F:  2929303----T:  2931908 	 St: c0274000 Sz: 4096 	 Sm: 0 	 T: memcpy_h2d(1.758947)
F:  2931908----T:  2934513 	 St: c0120000 Sz: 4096 	 Sm: 0 	 T: memcpy_h2d(1.758947)
F:  2934513----T:  2937118 	 St: c025c000 Sz: 4096 	 Sm: 0 	 T: memcpy_h2d(1.758947)
F:  2937118----T:  2939723 	 St: c011f000 Sz: 4096 	 Sm: 0 	 T: memcpy_h2d(1.758947)
F:  2939723----T:  2942328 	 St: c0121000 Sz: 4096 	 Sm: 0 	 T: memcpy_h2d(1.758947)
F:  2942328----T:  2944933 	 St: c0144000 Sz: 4096 	 Sm: 0 	 T: memcpy_h2d(1.758947)
F:  2944933----T:  2947538 	 St: c0151000 Sz: 4096 	 Sm: 0 	 T: memcpy_h2d(1.758947)
F:  2947538----T:  2950143 	 St: c0126000 Sz: 4096 	 Sm: 0 	 T: memcpy_h2d(1.758947)
F:  2950143----T:  2952748 	 St: c0180000 Sz: 4096 	 Sm: 0 	 T: memcpy_h2d(1.758947)
F:  2952748----T:  2955353 	 St: c017f000 Sz: 4096 	 Sm: 0 	 T: memcpy_h2d(1.758947)
F:  2955353----T:  2957958 	 St: c01a2000 Sz: 4096 	 Sm: 0 	 T: memcpy_h2d(1.758947)
F:  2957958----T:  2960563 	 St: c0235000 Sz: 4096 	 Sm: 0 	 T: memcpy_h2d(1.758947)
F:  2960563----T:  2963168 	 St: c0198000 Sz: 4096 	 Sm: 0 	 T: memcpy_h2d(1.758947)
F:  2963168----T:  2965773 	 St: c0199000 Sz: 4096 	 Sm: 0 	 T: memcpy_h2d(1.758947)
F:  2965773----T:  2968378 	 St: c014d000 Sz: 4096 	 Sm: 0 	 T: memcpy_h2d(1.758947)
F:  2968378----T:  2970983 	 St: c010e000 Sz: 4096 	 Sm: 0 	 T: memcpy_h2d(1.758947)
F:  2970983----T:  2973588 	 St: c00c7000 Sz: 4096 	 Sm: 0 	 T: memcpy_h2d(1.758947)
F:  2973588----T:  2976193 	 St: c0167000 Sz: 4096 	 Sm: 0 	 T: memcpy_h2d(1.758947)
F:  2976193----T:  2978798 	 St: c01ac000 Sz: 4096 	 Sm: 0 	 T: memcpy_h2d(1.758947)
F:  2978798----T:  2981403 	 St: c01ad000 Sz: 4096 	 Sm: 0 	 T: memcpy_h2d(1.758947)
F:  2981403----T:  2984008 	 St: c01ed000 Sz: 4096 	 Sm: 0 	 T: memcpy_h2d(1.758947)
F:  2984008----T:  2986613 	 St: c015f000 Sz: 4096 	 Sm: 0 	 T: memcpy_h2d(1.758947)
F:  2986613----T:  2989218 	 St: c0160000 Sz: 4096 	 Sm: 0 	 T: memcpy_h2d(1.758947)
F:  2989218----T:  2991823 	 St: c0213000 Sz: 4096 	 Sm: 0 	 T: memcpy_h2d(1.758947)
F:  2991823----T:  2994428 	 St: c017d000 Sz: 4096 	 Sm: 0 	 T: memcpy_h2d(1.758947)
F:  2994428----T:  2997033 	 St: c0185000 Sz: 4096 	 Sm: 0 	 T: memcpy_h2d(1.758947)
F:  2997033----T:  2999638 	 St: c01db000 Sz: 4096 	 Sm: 0 	 T: memcpy_h2d(1.758947)
F:  2999638----T:  3002243 	 St: c02a9000 Sz: 4096 	 Sm: 0 	 T: memcpy_h2d(1.758947)
F:  3002243----T:  3004848 	 St: c01e5000 Sz: 4096 	 Sm: 0 	 T: memcpy_h2d(1.758947)
F:  3004848----T:  3007453 	 St: c01e6000 Sz: 4096 	 Sm: 0 	 T: memcpy_h2d(1.758947)
F:  3007453----T:  3010058 	 St: c01ff000 Sz: 4096 	 Sm: 0 	 T: memcpy_h2d(1.758947)
F:  3010058----T:  3012663 	 St: c022e000 Sz: 4096 	 Sm: 0 	 T: memcpy_h2d(1.758947)
F:  3012663----T:  3015268 	 St: c01ea000 Sz: 4096 	 Sm: 0 	 T: memcpy_h2d(1.758947)
F:  3015268----T:  3017873 	 St: c01a7000 Sz: 4096 	 Sm: 0 	 T: memcpy_h2d(1.758947)
F:  3017873----T:  3020478 	 St: c01bc000 Sz: 4096 	 Sm: 0 	 T: memcpy_h2d(1.758947)
F:  3020478----T:  3023083 	 St: c01bb000 Sz: 4096 	 Sm: 0 	 T: memcpy_h2d(1.758947)
F:  3023083----T:  3025688 	 St: c01b2000 Sz: 4096 	 Sm: 0 	 T: memcpy_h2d(1.758947)
F:  3025688----T:  3028293 	 St: c01b4000 Sz: 4096 	 Sm: 0 	 T: memcpy_h2d(1.758947)
F:  3028293----T:  3030898 	 St: c01b3000 Sz: 4096 	 Sm: 0 	 T: memcpy_h2d(1.758947)
F:  3030898----T:  3033503 	 St: c01b5000 Sz: 4096 	 Sm: 0 	 T: memcpy_h2d(1.758947)
F:  3033503----T:  3036108 	 St: c01be000 Sz: 4096 	 Sm: 0 	 T: memcpy_h2d(1.758947)
F:  3036108----T:  3038713 	 St: c01bf000 Sz: 4096 	 Sm: 0 	 T: memcpy_h2d(1.758947)
F:  3038713----T:  3041318 	 St: c0207000 Sz: 4096 	 Sm: 0 	 T: memcpy_h2d(1.758947)
F:  3041318----T:  3043923 	 St: c0218000 Sz: 4096 	 Sm: 0 	 T: memcpy_h2d(1.758947)
F:  3043923----T:  3046528 	 St: c021a000 Sz: 4096 	 Sm: 0 	 T: memcpy_h2d(1.758947)
F:  3046528----T:  3049133 	 St: c01a8000 Sz: 4096 	 Sm: 0 	 T: memcpy_h2d(1.758947)
F:  3049133----T:  3051738 	 St: c020e000 Sz: 4096 	 Sm: 0 	 T: memcpy_h2d(1.758947)
F:  3278790----T:  3281706 	 	 	 Kl: 8 	 Sm: 0 	 T: kernel_launch(1.968940)
F:  3281706----T:  3284241 	 St: 80000000 Sz: 1 	 Sm: 0 	 T: memcpy_d2h(1.711681)
F:  3284242----T:  3286777 	 St: 80000000 Sz: 1 	 Sm: 0 	 T: memcpy_h2d(1.711681)
F:  3508928----T:  3799402 	 	 	 Kl: 9 	 Sm: 0 	 T: kernel_launch(196.133698)
F:  3509551----T:  3512156 	 St: c002d000 Sz: 4096 	 Sm: 0 	 T: memcpy_h2d(1.758947)
F:  3512156----T:  3514761 	 St: c0021000 Sz: 4096 	 Sm: 0 	 T: memcpy_h2d(1.758947)
F:  3514761----T:  3517366 	 St: c0010000 Sz: 4096 	 Sm: 0 	 T: memcpy_h2d(1.758947)
F:  3517366----T:  3519971 	 St: c0026000 Sz: 4096 	 Sm: 0 	 T: memcpy_h2d(1.758947)
F:  3519971----T:  3522576 	 St: c0018000 Sz: 4096 	 Sm: 0 	 T: memcpy_h2d(1.758947)
F:  3522576----T:  3525181 	 St: c003b000 Sz: 4096 	 Sm: 0 	 T: memcpy_h2d(1.758947)
F:  3525181----T:  3527786 	 St: c007a000 Sz: 4096 	 Sm: 0 	 T: memcpy_h2d(1.758947)
F:  3527786----T:  3530391 	 St: c003c000 Sz: 4096 	 Sm: 0 	 T: memcpy_h2d(1.758947)
F:  3530391----T:  3532996 	 St: c0057000 Sz: 4096 	 Sm: 0 	 T: memcpy_h2d(1.758947)
F:  3532996----T:  3535601 	 St: c006b000 Sz: 4096 	 Sm: 0 	 T: memcpy_h2d(1.758947)
F:  3535601----T:  3538206 	 St: c00b9000 Sz: 4096 	 Sm: 0 	 T: memcpy_h2d(1.758947)
F:  3538206----T:  3540811 	 St: c00d4000 Sz: 4096 	 Sm: 0 	 T: memcpy_h2d(1.758947)
F:  3540811----T:  3543416 	 St: c00f1000 Sz: 4096 	 Sm: 0 	 T: memcpy_h2d(1.758947)
F:  3543416----T:  3546021 	 St: c00b6000 Sz: 4096 	 Sm: 0 	 T: memcpy_h2d(1.758947)
F:  3546021----T:  3548626 	 St: c00e6000 Sz: 4096 	 Sm: 0 	 T: memcpy_h2d(1.758947)
F:  3548626----T:  3551231 	 St: c00c0000 Sz: 4096 	 Sm: 0 	 T: memcpy_h2d(1.758947)
F:  3551231----T:  3553836 	 St: c00d5000 Sz: 4096 	 Sm: 0 	 T: memcpy_h2d(1.758947)
F:  3553836----T:  3556441 	 St: c0102000 Sz: 4096 	 Sm: 0 	 T: memcpy_h2d(1.758947)
F:  3556441----T:  3559046 	 St: c00b7000 Sz: 4096 	 Sm: 0 	 T: memcpy_h2d(1.758947)
F:  3559046----T:  3561651 	 St: c00bd000 Sz: 4096 	 Sm: 0 	 T: memcpy_h2d(1.758947)
F:  3561651----T:  3564256 	 St: c00e5000 Sz: 4096 	 Sm: 0 	 T: memcpy_h2d(1.758947)
F:  3564256----T:  3566861 	 St: c0244000 Sz: 4096 	 Sm: 0 	 T: memcpy_h2d(1.758947)
F:  3566861----T:  3569466 	 St: c00d0000 Sz: 4096 	 Sm: 0 	 T: memcpy_h2d(1.758947)
F:  3569466----T:  3572071 	 St: c00df000 Sz: 4096 	 Sm: 0 	 T: memcpy_h2d(1.758947)
F:  3572071----T:  3574676 	 St: c00c4000 Sz: 4096 	 Sm: 0 	 T: memcpy_h2d(1.758947)
F:  3574676----T:  3577281 	 St: c0189000 Sz: 4096 	 Sm: 0 	 T: memcpy_h2d(1.758947)
F:  3577281----T:  3579886 	 St: c0105000 Sz: 4096 	 Sm: 0 	 T: memcpy_h2d(1.758947)
F:  3579886----T:  3582491 	 St: c00d9000 Sz: 4096 	 Sm: 0 	 T: memcpy_h2d(1.758947)
F:  3582491----T:  3585096 	 St: c0122000 Sz: 4096 	 Sm: 0 	 T: memcpy_h2d(1.758947)
F:  3585096----T:  3587701 	 St: c014b000 Sz: 4096 	 Sm: 0 	 T: memcpy_h2d(1.758947)
F:  3587701----T:  3590306 	 St: c0145000 Sz: 4096 	 Sm: 0 	 T: memcpy_h2d(1.758947)
F:  3590306----T:  3592911 	 St: c01c4000 Sz: 4096 	 Sm: 0 	 T: memcpy_h2d(1.758947)
F:  3592911----T:  3595516 	 St: c00ee000 Sz: 4096 	 Sm: 0 	 T: memcpy_h2d(1.758947)
F:  3595516----T:  3598121 	 St: c0139000 Sz: 4096 	 Sm: 0 	 T: memcpy_h2d(1.758947)
F:  3598121----T:  3600726 	 St: c0106000 Sz: 4096 	 Sm: 0 	 T: memcpy_h2d(1.758947)
F:  3600726----T:  3603331 	 St: c0148000 Sz: 4096 	 Sm: 0 	 T: memcpy_h2d(1.758947)
F:  3603331----T:  3605936 	 St: c0115000 Sz: 4096 	 Sm: 0 	 T: memcpy_h2d(1.758947)
F:  3605936----T:  3608541 	 St: c012f000 Sz: 4096 	 Sm: 0 	 T: memcpy_h2d(1.758947)
F:  3608541----T:  3611146 	 St: c0125000 Sz: 4096 	 Sm: 0 	 T: memcpy_h2d(1.758947)
F:  3611146----T:  3613751 	 St: c0117000 Sz: 4096 	 Sm: 0 	 T: memcpy_h2d(1.758947)
F:  3613751----T:  3616356 	 St: c0156000 Sz: 4096 	 Sm: 0 	 T: memcpy_h2d(1.758947)
F:  3616356----T:  3618961 	 St: c01c5000 Sz: 4096 	 Sm: 0 	 T: memcpy_h2d(1.758947)
F:  3618961----T:  3621566 	 St: c012d000 Sz: 4096 	 Sm: 0 	 T: memcpy_h2d(1.758947)
F:  3621566----T:  3624171 	 St: c010f000 Sz: 4096 	 Sm: 0 	 T: memcpy_h2d(1.758947)
F:  3624171----T:  3626776 	 St: c011a000 Sz: 4096 	 Sm: 0 	 T: memcpy_h2d(1.758947)
F:  3626776----T:  3629381 	 St: c024e000 Sz: 4096 	 Sm: 0 	 T: memcpy_h2d(1.758947)
F:  3629381----T:  3631986 	 St: c0178000 Sz: 4096 	 Sm: 0 	 T: memcpy_h2d(1.758947)
F:  3631986----T:  3634591 	 St: c0197000 Sz: 4096 	 Sm: 0 	 T: memcpy_h2d(1.758947)
F:  3634591----T:  3637196 	 St: c01a6000 Sz: 4096 	 Sm: 0 	 T: memcpy_h2d(1.758947)
F:  3637196----T:  3639801 	 St: c016d000 Sz: 4096 	 Sm: 0 	 T: memcpy_h2d(1.758947)
F:  3639801----T:  3642406 	 St: c018e000 Sz: 4096 	 Sm: 0 	 T: memcpy_h2d(1.758947)
F:  3642406----T:  3645011 	 St: c016a000 Sz: 4096 	 Sm: 0 	 T: memcpy_h2d(1.758947)
F:  3645011----T:  3647616 	 St: c0179000 Sz: 4096 	 Sm: 0 	 T: memcpy_h2d(1.758947)
F:  3647616----T:  3650221 	 St: c02a5000 Sz: 4096 	 Sm: 0 	 T: memcpy_h2d(1.758947)
F:  3650221----T:  3652826 	 St: c0176000 Sz: 4096 	 Sm: 0 	 T: memcpy_h2d(1.758947)
F:  3652826----T:  3655431 	 St: c0177000 Sz: 4096 	 Sm: 0 	 T: memcpy_h2d(1.758947)
F:  3655431----T:  3658036 	 St: c016f000 Sz: 4096 	 Sm: 0 	 T: memcpy_h2d(1.758947)
F:  3658036----T:  3660641 	 St: c0195000 Sz: 4096 	 Sm: 0 	 T: memcpy_h2d(1.758947)
F:  3660641----T:  3663246 	 St: c016e000 Sz: 4096 	 Sm: 0 	 T: memcpy_h2d(1.758947)
F:  3663246----T:  3665851 	 St: c018b000 Sz: 4096 	 Sm: 0 	 T: memcpy_h2d(1.758947)
F:  3665851----T:  3668456 	 St: c0159000 Sz: 4096 	 Sm: 0 	 T: memcpy_h2d(1.758947)
F:  3668456----T:  3671061 	 St: c0172000 Sz: 4096 	 Sm: 0 	 T: memcpy_h2d(1.758947)
F:  3671061----T:  3673666 	 St: c017e000 Sz: 4096 	 Sm: 0 	 T: memcpy_h2d(1.758947)
F:  3673666----T:  3676271 	 St: c018f000 Sz: 4096 	 Sm: 0 	 T: memcpy_h2d(1.758947)
F:  3676271----T:  3678876 	 St: c015a000 Sz: 4096 	 Sm: 0 	 T: memcpy_h2d(1.758947)
F:  3678876----T:  3681481 	 St: c01dc000 Sz: 4096 	 Sm: 0 	 T: memcpy_h2d(1.758947)
F:  3681481----T:  3684086 	 St: c01f5000 Sz: 4096 	 Sm: 0 	 T: memcpy_h2d(1.758947)
F:  3684086----T:  3686691 	 St: c018a000 Sz: 4096 	 Sm: 0 	 T: memcpy_h2d(1.758947)
F:  3686691----T:  3689296 	 St: c01df000 Sz: 4096 	 Sm: 0 	 T: memcpy_h2d(1.758947)
F:  3689296----T:  3691901 	 St: c01c8000 Sz: 4096 	 Sm: 0 	 T: memcpy_h2d(1.758947)
F:  3691901----T:  3694506 	 St: c01bd000 Sz: 4096 	 Sm: 0 	 T: memcpy_h2d(1.758947)
F:  3694506----T:  3697111 	 St: c01b1000 Sz: 4096 	 Sm: 0 	 T: memcpy_h2d(1.758947)
F:  3697111----T:  3699716 	 St: c01c9000 Sz: 4096 	 Sm: 0 	 T: memcpy_h2d(1.758947)
F:  3699716----T:  3702321 	 St: c01c0000 Sz: 4096 	 Sm: 0 	 T: memcpy_h2d(1.758947)
F:  3702321----T:  3704926 	 St: c01f2000 Sz: 4096 	 Sm: 0 	 T: memcpy_h2d(1.758947)
F:  3704926----T:  3707531 	 St: c01e7000 Sz: 4096 	 Sm: 0 	 T: memcpy_h2d(1.758947)
F:  3707531----T:  3710136 	 St: c01d1000 Sz: 4096 	 Sm: 0 	 T: memcpy_h2d(1.758947)
F:  3710136----T:  3712741 	 St: c01c6000 Sz: 4096 	 Sm: 0 	 T: memcpy_h2d(1.758947)
F:  3712741----T:  3715346 	 St: c01cc000 Sz: 4096 	 Sm: 0 	 T: memcpy_h2d(1.758947)
F:  3715346----T:  3717951 	 St: c01d8000 Sz: 4096 	 Sm: 0 	 T: memcpy_h2d(1.758947)
F:  3717951----T:  3720556 	 St: c01d5000 Sz: 4096 	 Sm: 0 	 T: memcpy_h2d(1.758947)
F:  3720556----T:  3723161 	 St: c01cf000 Sz: 4096 	 Sm: 0 	 T: memcpy_h2d(1.758947)
F:  3723161----T:  3725766 	 St: c01f8000 Sz: 4096 	 Sm: 0 	 T: memcpy_h2d(1.758947)
F:  3725766----T:  3728371 	 St: c01d6000 Sz: 4096 	 Sm: 0 	 T: memcpy_h2d(1.758947)
F:  3728371----T:  3730976 	 St: c01f1000 Sz: 4096 	 Sm: 0 	 T: memcpy_h2d(1.758947)
F:  3730976----T:  3733581 	 St: c0209000 Sz: 4096 	 Sm: 0 	 T: memcpy_h2d(1.758947)
F:  3733581----T:  3736186 	 St: c0137000 Sz: 4096 	 Sm: 0 	 T: memcpy_h2d(1.758947)
F:  3736186----T:  3738791 	 St: c0114000 Sz: 4096 	 Sm: 0 	 T: memcpy_h2d(1.758947)
F:  3738791----T:  3741396 	 St: c0205000 Sz: 4096 	 Sm: 0 	 T: memcpy_h2d(1.758947)
F:  3741396----T:  3744001 	 St: c0206000 Sz: 4096 	 Sm: 0 	 T: memcpy_h2d(1.758947)
F:  3744001----T:  3746606 	 St: c020b000 Sz: 4096 	 Sm: 0 	 T: memcpy_h2d(1.758947)
F:  3746606----T:  3749211 	 St: c020f000 Sz: 4096 	 Sm: 0 	 T: memcpy_h2d(1.758947)
F:  3749211----T:  3751816 	 St: c020d000 Sz: 4096 	 Sm: 0 	 T: memcpy_h2d(1.758947)
F:  3751816----T:  3754421 	 St: c00e0000 Sz: 4096 	 Sm: 0 	 T: memcpy_h2d(1.758947)
F:  3754421----T:  3757026 	 St: c0219000 Sz: 4096 	 Sm: 0 	 T: memcpy_h2d(1.758947)
F:  3757026----T:  3759631 	 St: c0224000 Sz: 4096 	 Sm: 0 	 T: memcpy_h2d(1.758947)
F:  3759631----T:  3762236 	 St: c0226000 Sz: 4096 	 Sm: 0 	 T: memcpy_h2d(1.758947)
F:  3762236----T:  3764841 	 St: c022d000 Sz: 4096 	 Sm: 0 	 T: memcpy_h2d(1.758947)
F:  3764841----T:  3767446 	 St: c0123000 Sz: 4096 	 Sm: 0 	 T: memcpy_h2d(1.758947)
F:  3767446----T:  3770051 	 St: c00f9000 Sz: 4096 	 Sm: 0 	 T: memcpy_h2d(1.758947)
F:  3770051----T:  3772656 	 St: c0162000 Sz: 4096 	 Sm: 0 	 T: memcpy_h2d(1.758947)
F:  3772656----T:  3775261 	 St: c0163000 Sz: 4096 	 Sm: 0 	 T: memcpy_h2d(1.758947)
F:  3775261----T:  3777866 	 St: c0161000 Sz: 4096 	 Sm: 0 	 T: memcpy_h2d(1.758947)
F:  3777866----T:  3780471 	 St: c0220000 Sz: 4096 	 Sm: 0 	 T: memcpy_h2d(1.758947)
F:  3780471----T:  3783076 	 St: c0165000 Sz: 4096 	 Sm: 0 	 T: memcpy_h2d(1.758947)
F:  3783076----T:  3785681 	 St: c0166000 Sz: 4096 	 Sm: 0 	 T: memcpy_h2d(1.758947)
F:  3785681----T:  3788286 	 St: c026b000 Sz: 4096 	 Sm: 0 	 T: memcpy_h2d(1.758947)
F:  3788286----T:  3790891 	 St: c01b7000 Sz: 4096 	 Sm: 0 	 T: memcpy_h2d(1.758947)
F:  3790891----T:  3793496 	 St: c01f3000 Sz: 4096 	 Sm: 0 	 T: memcpy_h2d(1.758947)
F:  4021552----T:  4025870 	 	 	 Kl: 10 	 Sm: 0 	 T: kernel_launch(2.915598)
F:  4025870----T:  4028405 	 St: 80000000 Sz: 1 	 Sm: 0 	 T: memcpy_d2h(1.711681)
F:  4028406----T:  4030941 	 St: 80000000 Sz: 1 	 Sm: 0 	 T: memcpy_h2d(1.711681)
F:  4253092----T:  4308750 	 	 	 Kl: 11 	 Sm: 0 	 T: kernel_launch(37.581364)
F:  4530900----T:  4535214 	 	 	 Kl: 12 	 Sm: 0 	 T: kernel_launch(2.912897)
F:  4535214----T:  4537749 	 St: 80000000 Sz: 1 	 Sm: 0 	 T: memcpy_d2h(1.711681)
F:  4537750----T:  4540285 	 St: 80000000 Sz: 1 	 Sm: 0 	 T: memcpy_h2d(1.711681)
F:  4762436----T:  4850098 	 	 	 Kl: 13 	 Sm: 0 	 T: kernel_launch(59.191086)
F:  5072248----T:  5076557 	 	 	 Kl: 14 	 Sm: 0 	 T: kernel_launch(2.909521)
F:  5076557----T:  5079092 	 St: 80000000 Sz: 1 	 Sm: 0 	 T: memcpy_d2h(1.711681)
F:  5079093----T:  5081628 	 St: 80000000 Sz: 1 	 Sm: 0 	 T: memcpy_h2d(1.711681)
F:  5303779----T:  5337245 	 	 	 Kl: 15 	 Sm: 0 	 T: kernel_launch(22.596893)
F:  5559395----T:  5561322 	 	 	 Kl: 16 	 Sm: 0 	 T: kernel_launch(1.301148)
F:  5561322----T:  5563857 	 St: 80000000 Sz: 1 	 Sm: 0 	 T: memcpy_d2h(1.711681)
F:  5563858----T:  5566393 	 St: 80000000 Sz: 1 	 Sm: 0 	 T: memcpy_h2d(1.711681)
F:  5788544----T:  5793869 	 	 	 Kl: 17 	 Sm: 0 	 T: kernel_launch(3.595544)
F:  6016019----T:  6017110 	 	 	 Kl: 18 	 Sm: 0 	 T: kernel_launch(0.736664)
F:  6017110----T:  6019645 	 St: 80000000 Sz: 1 	 Sm: 0 	 T: memcpy_d2h(1.711681)
F:  6019646----T:  6022181 	 St: 80000000 Sz: 1 	 Sm: 0 	 T: memcpy_h2d(1.711681)
F:  6244332----T:  6246559 	 	 	 Kl: 19 	 Sm: 0 	 T: kernel_launch(1.503714)
F:  6468709----T:  6469671 	 	 	 Kl: 20 	 Sm: 0 	 T: kernel_launch(0.649561)
F:  6469671----T:  6472206 	 St: 80000000 Sz: 1 	 Sm: 0 	 T: memcpy_d2h(1.711681)
F:  6472207----T:  6474812 	 St: 0 Sz: 4096 	 Sm: 0 	 T: device_sync(1.758947)
F:  6472207----T:  6480447 	 St: 0 Sz: 61440 	 Sm: 0 	 T: device_sync(5.563808)
F:  6483052----T:  6485657 	 St: 0 Sz: 4096 	 Sm: 0 	 T: device_sync(1.758947)
F:  6483052----T:  6491292 	 St: 0 Sz: 61440 	 Sm: 0 	 T: device_sync(5.563808)
F:  6493897----T:  6496502 	 St: 0 Sz: 4096 	 Sm: 0 	 T: device_sync(1.758947)
F:  6493897----T:  6509592 	 St: 0 Sz: 126976 	 Sm: 0 	 T: device_sync(10.597569)
F:  6512197----T:  6514802 	 St: 0 Sz: 4096 	 Sm: 0 	 T: device_sync(1.758947)
F:  6512197----T:  6535400 	 St: 0 Sz: 192512 	 Sm: 0 	 T: device_sync(15.667117)
Tot_prefetch_time: 0(cycle), 0.000000(us)
Tot_kernel_exec_time: 1978487(cycle), 1335.912842(us)
Tot_kernel_exec_time_and_fault_time: 31968737(cycle), 21585.912109(us)
Tot_memcpy_h2d_time: 1788935(cycle), 1207.923706(us)
Tot_memcpy_d2h_time: 25350(cycle), 17.116814(us)
Tot_memcpy_time: 1814285(cycle), 1225.040527(us)
Tot_devicesync_time: 65798(cycle), 44.428089(us)
Tot_writeback_time: 0(cycle), 0.000000(us)
Tot_rdma_time: 0(cycle), 0.000000(us)
Tot_memcpy_d2h_sync_wb_time: 91148(cycle), 61.544903(us)
GPGPU-Sim: *** exit detected ***
