

        *** GPGPU-Sim Simulator Version 3.2.2  [build gpgpu-sim_git-commit-3860d9b353b66e89e1a9ca14f6569fffcf247a15_modified_0] ***


GPGPU-Sim PTX: simulation mode 0 (can change with PTX_SIM_MODE_FUNC environment variable:
               1=functional simulation only, 0=detailed performance simulator)
GPGPU-Sim: Configuration options:

-network_mode                           1 # Interconnection network mode
-inter_config_file   config_fermi_islip.icnt # Interconnection network config file
-gpgpu_ptx_use_cuobjdump                    1 # Use cuobjdump to extract ptx and sass from binaries
-gpgpu_experimental_lib_support                    0 # Try to extract code from cuda libraries [Broken because of unknown cudaGetExportTable]
-gpgpu_ptx_convert_to_ptxplus                    0 # Convert SASS (native ISA) to ptxplus and run ptxplus
-gpgpu_ptx_force_max_capability                   20 # Force maximum compute capability
-gpgpu_ptx_inst_debug_to_file                    0 # Dump executed instructions' debug information to file
-gpgpu_ptx_inst_debug_file       inst_debug.txt # Executed instructions' debug output file
-gpgpu_ptx_inst_debug_thread_uid                    1 # Thread UID for executed instructions' debug output
-gpgpu_simd_model                       1 # 1 = post-dominator
-gpgpu_shader_core_pipeline              2048:32 # shader core pipeline config, i.e., {<nthread>:<warpsize>}
-gpgpu_tex_cache:l1  16:128:24,L:R:m:N:L,F:128:4,128:2 # per-shader L1 texture cache  (READ-ONLY) config  {<nsets>:<bsize>:<assoc>,<rep>:<wr>:<alloc>:<wr_alloc>,<mshr>:<N>:<merge>,<mq>:<rf>}
-gpgpu_const_cache:l1 128:64:2,L:R:f:N:L,A:2:64,4 # per-shader L1 constant memory cache  (READ-ONLY) config  {<nsets>:<bsize>:<assoc>,<rep>:<wr>:<alloc>:<wr_alloc>,<mshr>:<N>:<merge>,<mq>} 
-gpgpu_cache:il1     8:128:4,L:R:f:N:L,A:2:48,4 # shader L1 instruction cache config  {<nsets>:<bsize>:<assoc>,<rep>:<wr>:<alloc>:<wr_alloc>,<mshr>:<N>:<merge>,<mq>} 
-gpgpu_cache:dl1     64:128:6,L:L:m:N:H,A:128:8,8 # per-shader L1 data cache config  {<nsets>:<bsize>:<assoc>,<rep>:<wr>:<alloc>:<wr_alloc>,<mshr>:<N>:<merge>,<mq> | none}
-gpgpu_cache:dl1PrefL1                 none # per-shader L1 data cache config  {<nsets>:<bsize>:<assoc>,<rep>:<wr>:<alloc>:<wr_alloc>,<mshr>:<N>:<merge>,<mq> | none}
-gpgpu_cache:dl1PrefShared                 none # per-shader L1 data cache config  {<nsets>:<bsize>:<assoc>,<rep>:<wr>:<alloc>:<wr_alloc>,<mshr>:<N>:<merge>,<mq> | none}
-gmem_skip_L1D                          1 # global memory access skip L1D cache (implements -Xptxas -dlcm=cg, default=no skip)
-gpgpu_perfect_mem                      0 # enable perfect memory mode (no cache miss)
-n_regfile_gating_group                    4 # group of lanes that should be read/written together)
-gpgpu_clock_gated_reg_file                    0 # enable clock gated reg file for power calculations
-gpgpu_clock_gated_lanes                    0 # enable clock gated lanes for power calculations
-gpgpu_shader_registers                65536 # Number of registers per shader core. Limits number of concurrent CTAs. (default 8192)
-gpgpu_shader_cta                      32 # Maximum number of concurrent CTAs in shader (default 8)
-gpgpu_num_cta_barriers                   16 # Maximum number of named barriers per CTA (default 16)
-gpgpu_n_clusters                      28 # number of processing clusters
-gpgpu_n_cores_per_cluster                    1 # number of simd cores per cluster
-gpgpu_n_cluster_ejection_buffer_size                    8 # number of packets in ejection buffer
-gpgpu_n_ldst_response_buffer_size                    2 # number of response packets in ld/st unit ejection buffer
-gpgpu_shmem_size                   16384 # Size of shared memory per shader core (default 16kB)
-gpgpu_shmem_size                   98304 # Size of shared memory per shader core (default 16kB)
-gpgpu_shmem_size_PrefL1                16384 # Size of shared memory per shader core (default 16kB)
-gpgpu_shmem_size_PrefShared                16384 # Size of shared memory per shader core (default 16kB)
-gpgpu_shmem_num_banks                   32 # Number of banks in the shared memory in each shader core (default 16)
-gpgpu_shmem_limited_broadcast                    0 # Limit shared memory to do one broadcast per cycle (default on)
-gpgpu_shmem_warp_parts                    1 # Number of portions a warp is divided into for shared memory bank conflict check 
-gpgpu_warpdistro_shader                   -1 # Specify which shader core to collect the warp size distribution from
-gpgpu_warp_issue_shader                    0 # Specify which shader core to collect the warp issue distribution from
-gpgpu_local_mem_map                    1 # Mapping from local memory space address to simulated GPU physical address space (default = enabled)
-gpgpu_num_reg_banks                   32 # Number of register banks (default = 8)
-gpgpu_reg_bank_use_warp_id                    0 # Use warp ID in mapping registers to banks (default = off)
-gpgpu_operand_collector_num_units_sp                   20 # number of collector units (default = 4)
-gpgpu_operand_collector_num_units_sfu                    4 # number of collector units (default = 4)
-gpgpu_operand_collector_num_units_mem                    8 # number of collector units (default = 2)
-gpgpu_operand_collector_num_units_gen                    0 # number of collector units (default = 0)
-gpgpu_operand_collector_num_in_ports_sp                    4 # number of collector unit in ports (default = 1)
-gpgpu_operand_collector_num_in_ports_sfu                    1 # number of collector unit in ports (default = 1)
-gpgpu_operand_collector_num_in_ports_mem                    1 # number of collector unit in ports (default = 1)
-gpgpu_operand_collector_num_in_ports_gen                    0 # number of collector unit in ports (default = 0)
-gpgpu_operand_collector_num_out_ports_sp                    4 # number of collector unit in ports (default = 1)
-gpgpu_operand_collector_num_out_ports_sfu                    1 # number of collector unit in ports (default = 1)
-gpgpu_operand_collector_num_out_ports_mem                    1 # number of collector unit in ports (default = 1)
-gpgpu_operand_collector_num_out_ports_gen                    0 # number of collector unit in ports (default = 0)
-gpgpu_coalesce_arch                   13 # Coalescing arch (default = 13, anything else is off for now)
-gpgpu_num_sched_per_core                    2 # Number of warp schedulers per core
-gpgpu_max_insn_issue_per_warp                    2 # Max number of instructions that can be issued per warp in one cycle by scheduler
-gpgpu_simt_core_sim_order                    1 # Select the simulation order of cores in a cluster (0=Fix, 1=Round-Robin)
-gpgpu_pipeline_widths        4,1,1,4,1,1,6 # Pipeline widths ID_OC_SP,ID_OC_SFU,ID_OC_MEM,OC_EX_SP,OC_EX_SFU,OC_EX_MEM,EX_WB
-gpgpu_num_sp_units                     4 # Number of SP units (default=1)
-gpgpu_num_sfu_units                    1 # Number of SF units (default=1)
-gpgpu_num_mem_units                    1 # Number if ldst units (default=1) WARNING: not hooked up to anything
-gpgpu_scheduler                      gto # Scheduler configuration: < lrr | gto | two_level_active > If two_level_active:<num_active_warps>:<inner_prioritization>:<outer_prioritization>For complete list of prioritization values see shader.h enum scheduler_prioritization_typeDefault: gto
-gpgpu_concurrent_kernel_sm                    0 # Support concurrent kernels on a SM (default = disabled)
-tlb_size                            4096 # Number of tlb entries per SM.
-gpgpu_dram_scheduler                    1 # 0 = fifo, 1 = FR-FCFS (defaul)
-gpgpu_dram_partition_queues              8:8:8:8 # i2$:$2d:d2$:$2i
-l2_ideal                               0 # Use a ideal L2 cache that always hit
-gpgpu_cache:dl2     64:128:16,L:B:m:W:L,A:1024:1024,4:0,32 # unified banked L2 data cache config  {<nsets>:<bsize>:<assoc>,<rep>:<wr>:<alloc>:<wr_alloc>,<mshr>:<N>:<merge>,<mq>}
-gpgpu_cache:dl2_texture_only                    0 # L2 cache used for texture only
-gpgpu_n_mem                           11 # number of memory modules (e.g. memory controllers) in gpu
-gpgpu_n_sub_partition_per_mchannel                    2 # number of memory subpartition in each memory module
-gpgpu_n_mem_per_ctrlr                    1 # number of memory chips per memory controller
-gpgpu_memlatency_stat                   14 # track and display latency statistics 0x2 enables MC, 0x4 enables queue logs
-gpgpu_frfcfs_dram_sched_queue_size                   64 # 0 = unlimited (default); # entries per chip
-gpgpu_dram_return_queue_size                  116 # 0 = unlimited (default); # entries per chip
-gpgpu_dram_buswidth                    4 # default = 4 bytes (8 bytes per cycle at DDR)
-gpgpu_dram_burst_length                    8 # Burst length of each DRAM request (default = 4 data bus cycle)
-dram_data_command_freq_ratio                    4 # Frequency ratio between DRAM data bus and command bus (default = 2 times, i.e. DDR)
-gpgpu_dram_timing_opt nbk=16:CCD=2:RRD=6:RCD=12:RAS=28:RP=12:RC=40: CL=12:WL=4:CDLR=5:WR=12:nbkgrp=1:CCDL=0:RTPL=0 # DRAM timing parameters = {nbk:tCCD:tRRD:tRCD:tRAS:tRP:tRC:CL:WL:tCDLR:tWR:nbkgrp:tCCDL:tRTPL}
-rop_latency                          120 # ROP queue latency (default 85)
-dram_latency                         100 # DRAM latency (default 30)
-gpgpu_mem_addr_mapping dramid@8;00000000.00000000.00000000.00000000.0000RRRR.RRRRRRRR.RBBBCCCC.BCCSSSSS # mapping memory address to dram model {dramid@<start bit>;<memory address map>}
-gpgpu_mem_addr_test                    0 # run sweep test to check address mapping for aliased address
-gpgpu_mem_address_mask                    1 # 0 = old addressing mask, 1 = new addressing mask, 2 = new add. mask + flipped bank sel and chip sel bits
-gpuwattch_xml_file  gpuwattch_geforcegtx1080ti.xml # GPUWattch XML file
-power_simulation_enabled                    1 # Turn on power simulator (1=On, 0=Off)
-power_per_cycle_dump                    0 # Dump detailed power output each cycle
-power_trace_enabled                    0 # produce a file for the power trace (1=On, 0=Off)
-power_trace_zlevel                     6 # Compression level of the power trace output log (0=no comp, 9=highest)
-steady_power_levels_enabled                    0 # produce a file for the steady power levels (1=On, 0=Off)
-steady_state_definition                  8:4 # allowed deviation:number of samples
-gpgpu_max_cycle                        0 # terminates gpu simulation early (0 = no limit)
-gpgpu_max_insn                         0 # terminates gpu simulation early (0 = no limit)
-gpgpu_max_cta                          0 # terminates gpu simulation early (0 = no limit)
-gpgpu_runtime_stat                   500 # display runtime statistics such as dram utilization {<freq>:<flag>}
-liveness_message_freq                    1 # Minimum number of seconds between simulation liveness messages (0 = always print)
-gpgpu_flush_l1_cache                    0 # Flush L1 cache at the end of each kernel call
-gpgpu_flush_l2_cache                    0 # Flush L2 cache at the end of each kernel call
-gpgpu_deadlock_detect                    0 # Stop the simulation at deadlock (1=on (default), 0=off)
-gpgpu_ptx_instruction_classification                    0 # if enabled will classify ptx instruction types per kernel (Max 255 kernels now)
-gpgpu_ptx_sim_mode                     0 # Select between Performance (default) or Functional simulation (1)
-gpgpu_clock_domains 1481.0:2962.0:1481.0:2750.0 # Clock Domain Frequencies in MhZ {<Core Clock>:<ICNT Clock>:<L2 Clock>:<DRAM Clock>}
-gpgpu_max_concurrent_kernel                    8 # maximum kernels that can run concurrently on GPU
-gpgpu_cflog_interval                    0 # Interval between each snapshot in control flow logger
-visualizer_enabled                     0 # Turn on visualizer output (1=On, 0=Off)
-visualizer_outputfile                 NULL # Specifies the output log file for visualizer
-visualizer_zlevel                      6 # Compression level of the visualizer output log (0=no comp, 9=highest)
-trace_enabled                          0 # Turn on traces
-trace_components                    none # comma seperated list of traces to enable. Complete list found in trace_streams.tup. Default none
-trace_sampling_core                    0 # The core which is printed using CORE_DPRINTF. Default 0
-trace_sampling_memory_partition                   -1 # The memory partition which is printed using MEMPART_DPRINTF. Default -1 (i.e. all)
-gddr_size                            1GB # Size of GDDR in MB/GB.(GLOBAL_HEAP_START, GLOBAL_HEAP_START + gddr_size) would be used for unmanged memory, (GLOBAL_HEAP_START + gddr_size, GLOBAL_HEAP_START + gddr_size*2) would be used for managed memory. 
-page_table_walk_latency                  100 # Average page table walk latency (in core cycle).
-eviction_policy                        0 # Select page eviction policy
-reserve_accessed_page_percent                    0 # Percentage of accessed pages reserved from eviction in hope that they will be accessed in next iteration.
-percentage_of_free_page_buffer                    0 # Percentage of free page buffer to trigger the page eviction.
-page_size                            4KB # GDDR page size, only 4KB/2MB avaliable.
-pcie_bandwith                   16.0GB/s # PCI-e bandwith per direction, in GB/s.
-enable_nvlink                          0 # Enable nvlink 2.0, 150.0GB/s
-enable_rdma                            0 # Enable remote direct memory access
-migrate_threshold                     10 # Access counter threshold for migrating the page from cpu to gpu
-sim_prof_enable                        1 # Enable gpgpu-sim profiler
-hardware_prefetch                      3 # Select gpgpu-sim hardware prefetcher
-hwprefetch_oversub                     0 # Select gpgpu-sim hardware prefetcher under over-subscription
-page_fault_latency                 66645 # Average fault latency (in core cycle).
-enable_accurate_simulation                    0 # Enable page fault functional simulation.
-enable_ptx_file_line_stats                    1 # Turn on PTX source line statistic profiling. (1 = On)
-ptx_line_stats_filename gpgpu_inst_stats.txt # Output file for PTX source line statistics.
-gpgpu_kernel_launch_latency               222150 # Kernel launch latency in cycles. Default: 0
-gpgpu_cdp_enabled                      0 # Turn on CDP
-save_embedded_ptx                      0 # saves ptx files embedded in binary as <n>.ptx
-keep                                   0 # keep intermediate files created by GPGPU-Sim when interfacing with external programs
-gpgpu_ptx_save_converted_ptxplus                    0 # Saved converted ptxplus to a file
-ptx_opcode_latency_int         4,13,4,5,145 # Opcode latencies for integers <ADD,MAX,MUL,MAD,DIV>Default 1,1,19,25,145
-ptx_opcode_latency_fp          4,13,4,5,39 # Opcode latencies for single precision floating points <ADD,MAX,MUL,MAD,DIV>Default 1,1,1,1,30
-ptx_opcode_latency_dp         8,19,8,8,330 # Opcode latencies for double precision floating points <ADD,MAX,MUL,MAD,DIV>Default 8,8,8,8,335
-ptx_opcode_initiation_int            1,2,2,2,8 # Opcode initiation intervals for integers <ADD,MAX,MUL,MAD,DIV>Default 1,1,4,4,32
-ptx_opcode_initiation_fp            1,2,1,1,4 # Opcode initiation intervals for single precision floating points <ADD,MAX,MUL,MAD,DIV>Default 1,1,1,1,5
-ptx_opcode_initiation_dp          1,2,1,1,130 # Opcode initiation intervals for double precision floating points <ADD,MAX,MUL,MAD,DIV>Default 8,8,8,8,130
-cdp_latency         7200,8000,100,12000,1600 # CDP API latency <cudaStreamCreateWithFlags, cudaGetParameterBufferV2_init_perWarp, cudaGetParameterBufferV2_perKernel, cudaLaunchDeviceV2_init_perWarp, cudaLaunchDevicV2_perKernel>Default 7200,8000,100,12000,1600
DRAM Timing Options:
nbk                                    16 # number of banks
CCD                                     2 # column to column delay
RRD                                     6 # minimal delay between activation of rows in different banks
RCD                                    12 # row to column delay
RAS                                    28 # time needed to activate row
RP                                     12 # time needed to precharge (deactivate) row
RC                                     40 # row cycle time
CDLR                                    5 # switching from write to read (changes tWTR)
WR                                     12 # last data-in to row precharge
CL                                     12 # CAS latency
WL                                      4 # Write latency
nbkgrp                                  1 # number of bank groups
CCDL                                    0 # column to column delay between accesses to different bank groups
RTPL                                    0 # read to precharge delay between accesses to different bank groups
Total number of memory sub partition = 22
addr_dec_mask[CHIP]  = 0000000000000000 	high:64 low:0
addr_dec_mask[BK]    = 0000000000007080 	high:15 low:7
addr_dec_mask[ROW]   = 000000000fff8000 	high:28 low:15
addr_dec_mask[COL]   = 0000000000000f7f 	high:12 low:0
addr_dec_mask[BURST] = 000000000000001f 	high:5 low:0
sub_partition_id_mask = 0000000000000080
GPGPU-Sim uArch: clock freqs: 1481000000.000000:2962000000.000000:1481000000.000000:2750000000.000000
GPGPU-Sim uArch: clock periods: 0.00000000067521944632:0.00000000033760972316:0.00000000067521944632:0.00000000036363636364
*** Initializing Memory Statistics ***
GPGPU-Sim uArch: interconnect node map (shaderID+MemID to icntID)
GPGPU-Sim uArch: Memory nodes ID start from index: 28
GPGPU-Sim uArch:    0   1   2   3   4   5   6
GPGPU-Sim uArch:    7   8   9  10  11  12  13
GPGPU-Sim uArch:   14  15  16  17  18  19  20
GPGPU-Sim uArch:   21  22  23  24  25  26  27
GPGPU-Sim uArch:   28  29  30  31  32  33  34
GPGPU-Sim uArch:   35  36  37  38  39  40  41
GPGPU-Sim uArch:   42  43  44  45  46  47  48
GPGPU-Sim uArch:   49
GPGPU-Sim uArch: interconnect node reverse map (icntID to shaderID+MemID)
GPGPU-Sim uArch: Memory nodes start from ID: 28
GPGPU-Sim uArch:    0   1   2   3   4   5   6
GPGPU-Sim uArch:    7   8   9  10  11  12  13
GPGPU-Sim uArch:   14  15  16  17  18  19  20
GPGPU-Sim uArch:   21  22  23  24  25  26  27
GPGPU-Sim uArch:   28  29  30  31  32  33  34
GPGPU-Sim uArch:   35  36  37  38  39  40  41
GPGPU-Sim uArch:   42  43  44  45  46  47  48
GPGPU-Sim uArch:   49
cfd663ed41c474d9fc4ee823af26d743  /home/gpuser/Desktop/gpgpu-sim_UVMSmart/benchmarks/Managed/hotspot/hotspot
GPGPU-Sim uArch: performance model initialization complete.
GPGPU-Sim PTX: __cudaRegisterFatBinary, fat_cubin_handle = 1, filename=default
self exe links to: /home/gpuser/Desktop/gpgpu-sim_UVMSmart/benchmarks/Managed/hotspot/hotspot
Running md5sum using "md5sum /home/gpuser/Desktop/gpgpu-sim_UVMSmart/benchmarks/Managed/hotspot/hotspot "
Parsing file _cuobjdump_complete_output_Q2hs8O
######### cuobjdump parser ########
## Adding new section ELF
Adding arch: sm_20
Adding identifier: default
## Adding new section ELF
Adding arch: sm_20
Adding identifier: default
## Adding new section PTX
Adding ptx filename: _cuobjdump_1.ptx
Adding arch: sm_20
Adding identifier: default
Done parsing!!!
GPGPU-Sim PTX: __cudaRegisterFunction _Z14calculate_tempiPfS_S_iiiiffffff : hostFun 0x0x401ae2, fat_cubin_handle = 1
GPGPU-Sim PTX: allocating shared region for "_Z14calculate_tempiPfS_S_iiiiffffff$__cuda_local_var_16165_39_non_const_temp_on_cuda" from 0x0 to 0x400 (shared memory space)
GPGPU-Sim PTX: allocating shared region for "_Z14calculate_tempiPfS_S_iiiiffffff$__cuda_local_var_16166_39_non_const_power_on_cuda" from 0x400 to 0x800 (shared memory space)
GPGPU-Sim PTX: allocating shared region for "_Z14calculate_tempiPfS_S_iiiiffffff$__cuda_local_var_16167_39_non_const_temp_t" from 0x800 to 0xc00 (shared memory space)
GPGPU-Sim PTX: instruction assembly for function '_Z14calculate_tempiPfS_S_iiiiffffff'...   done.
GPGPU-Sim PTX: finding reconvergence points for '_Z14calculate_tempiPfS_S_iiiiffffff'...
GPGPU-Sim PTX: Finding dominators for '_Z14calculate_tempiPfS_S_iiiiffffff'...
GPGPU-Sim PTX: Finding immediate dominators for '_Z14calculate_tempiPfS_S_iiiiffffff'...
GPGPU-Sim PTX: Finding postdominators for '_Z14calculate_tempiPfS_S_iiiiffffff'...
GPGPU-Sim PTX: Finding immediate postdominators for '_Z14calculate_tempiPfS_S_iiiiffffff'...
GPGPU-Sim PTX: pre-decoding instructions for '_Z14calculate_tempiPfS_S_iiiiffffff'...
GPGPU-Sim PTX: reconvergence points for _Z14calculate_tempiPfS_S_iiiiffffff...
GPGPU-Sim PTX:  1 (potential) branch divergence @  PC=0x118 (_1.ptx:82) @!%p7 bra BB0_2;
GPGPU-Sim PTX:    immediate post dominator      @  PC=0x1b8 (_1.ptx:106) bar.sync 0;
GPGPU-Sim PTX:  2 (potential) branch divergence @  PC=0x120 (_1.ptx:83) bra.uni BB0_1;
GPGPU-Sim PTX:    immediate post dominator      @  PC=0x128 (_1.ptx:86) mad.lo.s32 %r27, %r1, %r10, %r2;
GPGPU-Sim PTX:  3 (potential) branch divergence @  PC=0x1c8 (_1.ptx:108) @%p8 bra BB0_11;
GPGPU-Sim PTX:    immediate post dominator      @  PC=0x5b0 (_1.ptx:247) and.b16 %rs7, %rs8, 255;
GPGPU-Sim PTX:  4 (potential) branch divergence @  PC=0x338 (_1.ptx:157) @!%p15 bra BB0_7;
GPGPU-Sim PTX:    immediate post dominator      @  PC=0x538 (_1.ptx:226) bar.sync 0;
GPGPU-Sim PTX:  5 (potential) branch divergence @  PC=0x340 (_1.ptx:158) bra.uni BB0_5;
GPGPU-Sim PTX:    immediate post dominator      @  PC=0x348 (_1.ptx:161) setp.gt.s32%p16, %r23, %r6;
GPGPU-Sim PTX:  6 (potential) branch divergence @  PC=0x3d0 (_1.ptx:178) @%p28 bra BB0_7;
GPGPU-Sim PTX:    immediate post dominator      @  PC=0x538 (_1.ptx:226) bar.sync 0;
GPGPU-Sim PTX:  7 (potential) branch divergence @  PC=0x548 (_1.ptx:228) @%p31 bra BB0_11;
GPGPU-Sim PTX:    immediate post dominator      @  PC=0x5b0 (_1.ptx:247) and.b16 %rs7, %rs8, 255;
GPGPU-Sim PTX:  8 (potential) branch divergence @  PC=0x558 (_1.ptx:231) @%p32 bra BB0_10;
GPGPU-Sim PTX:    immediate post dominator      @  PC=0x590 (_1.ptx:241) bar.sync 0;
GPGPU-Sim PTX:  9 (potential) branch divergence @  PC=0x5a8 (_1.ptx:244) @%p33 bra BB0_4;
GPGPU-Sim PTX:    immediate post dominator      @  PC=0x5b0 (_1.ptx:247) and.b16 %rs7, %rs8, 255;
GPGPU-Sim PTX: 10 (potential) branch divergence @  PC=0x5c0 (_1.ptx:249) @%p34 bra BB0_13;
GPGPU-Sim PTX:    immediate post dominator      @  PC=0x620 (_1.ptx:264) ret;
GPGPU-Sim PTX: ... end of reconvergence points for _Z14calculate_tempiPfS_S_iiiiffffff
GPGPU-Sim PTX: ... done pre-decoding instructions for '_Z14calculate_tempiPfS_S_iiiiffffff'.
GPGPU-Sim PTX: finished parsing EMBEDDED .ptx file _1.ptx
Adding _cuobjdump_1.ptx with cubin handle 1
GPGPU-Sim PTX: extracting embedded .ptx to temporary file "_ptx_di46gC"
Running: cat _ptx_di46gC | sed 's/.version 1.5/.version 1.4/' | sed 's/, texmode_independent//' | sed 's/\(\.extern \.const\[1\] .b8 \w\+\)\[\]/\1\[1\]/' | sed 's/const\[.\]/const\[0\]/g' > _ptx2_oGgNpp
GPGPU-Sim PTX: generating ptxinfo using "$CUDA_INSTALL_PATH/bin/ptxas --gpu-name=sm_20 -v _ptx2_oGgNpp --output-file  /dev/null 2> _ptx_di46gCinfo"
GPGPU-Sim PTX: Kernel '_Z14calculate_tempiPfS_S_iiiiffffff' : regs=34, lmem=0, smem=3072, cmem=120
GPGPU-Sim PTX: removing ptxinfo using "rm -f _ptx_di46gC _ptx2_oGgNpp _ptx_di46gCinfo"
GPGPU-Sim PTX: loading globals with explicit initializers... 
GPGPU-Sim PTX: finished loading globals (0 bytes total).
GPGPU-Sim PTX: loading constants with explicit initializers...  done.
WG size of kernel = 16 X 16
pyramidHeight: 2
gridSize: [512, 512]
border:[2, 2]
blockGrid:[43, 43]
targetBlock:[12, 12]
Start computing the transient temperature

GPGPU-Sim PTX: cudaLaunch for 0x0x401ae2 (mode=performance simulation) on stream 0
GPGPU-Sim PTX: pushing kernel '_Z14calculate_tempiPfS_S_iiiiffffff' to stream 0, gridDim= (43,43,1) blockDim = (16,16,1) 
GPGPU-Sim uArch: Shader 1 bind to kernel 1 '_Z14calculate_tempiPfS_S_iiiiffffff'
GPGPU-Sim uArch: CTA/core = 7, limited by: regs
GPGPU-Sim uArch: Shader 2 bind to kernel 1 '_Z14calculate_tempiPfS_S_iiiiffffff'
GPGPU-Sim uArch: Shader 3 bind to kernel 1 '_Z14calculate_tempiPfS_S_iiiiffffff'
GPGPU-Sim uArch: Shader 4 bind to kernel 1 '_Z14calculate_tempiPfS_S_iiiiffffff'
GPGPU-Sim uArch: Shader 5 bind to kernel 1 '_Z14calculate_tempiPfS_S_iiiiffffff'
GPGPU-Sim uArch: Shader 6 bind to kernel 1 '_Z14calculate_tempiPfS_S_iiiiffffff'
GPGPU-Sim uArch: Shader 7 bind to kernel 1 '_Z14calculate_tempiPfS_S_iiiiffffff'
GPGPU-Sim uArch: Shader 8 bind to kernel 1 '_Z14calculate_tempiPfS_S_iiiiffffff'
GPGPU-Sim uArch: Shader 9 bind to kernel 1 '_Z14calculate_tempiPfS_S_iiiiffffff'
GPGPU-Sim uArch: Shader 10 bind to kernel 1 '_Z14calculate_tempiPfS_S_iiiiffffff'
GPGPU-Sim uArch: Shader 11 bind to kernel 1 '_Z14calculate_tempiPfS_S_iiiiffffff'
GPGPU-Sim uArch: Shader 12 bind to kernel 1 '_Z14calculate_tempiPfS_S_iiiiffffff'
GPGPU-Sim uArch: Shader 13 bind to kernel 1 '_Z14calculate_tempiPfS_S_iiiiffffff'
GPGPU-Sim uArch: Shader 14 bind to kernel 1 '_Z14calculate_tempiPfS_S_iiiiffffff'
GPGPU-Sim uArch: Shader 15 bind to kernel 1 '_Z14calculate_tempiPfS_S_iiiiffffff'
GPGPU-Sim uArch: Shader 16 bind to kernel 1 '_Z14calculate_tempiPfS_S_iiiiffffff'
GPGPU-Sim uArch: Shader 17 bind to kernel 1 '_Z14calculate_tempiPfS_S_iiiiffffff'
GPGPU-Sim uArch: Shader 18 bind to kernel 1 '_Z14calculate_tempiPfS_S_iiiiffffff'
GPGPU-Sim uArch: Shader 19 bind to kernel 1 '_Z14calculate_tempiPfS_S_iiiiffffff'
GPGPU-Sim uArch: Shader 20 bind to kernel 1 '_Z14calculate_tempiPfS_S_iiiiffffff'
GPGPU-Sim uArch: Shader 21 bind to kernel 1 '_Z14calculate_tempiPfS_S_iiiiffffff'
GPGPU-Sim uArch: Shader 22 bind to kernel 1 '_Z14calculate_tempiPfS_S_iiiiffffff'
GPGPU-Sim uArch: Shader 23 bind to kernel 1 '_Z14calculate_tempiPfS_S_iiiiffffff'
GPGPU-Sim uArch: Shader 24 bind to kernel 1 '_Z14calculate_tempiPfS_S_iiiiffffff'
GPGPU-Sim uArch: Shader 25 bind to kernel 1 '_Z14calculate_tempiPfS_S_iiiiffffff'
GPGPU-Sim uArch: Shader 26 bind to kernel 1 '_Z14calculate_tempiPfS_S_iiiiffffff'
GPGPU-Sim uArch: Shader 27 bind to kernel 1 '_Z14calculate_tempiPfS_S_iiiiffffff'
GPGPU-Sim uArch: Shader 0 bind to kernel 1 '_Z14calculate_tempiPfS_S_iiiiffffff'
Destroy streams for kernel 1: size 0
kernel_name = _Z14calculate_tempiPfS_S_iiiiffffff 
kernel_launch_uid = 1 
gpu_sim_cycle = 2004482
gpu_sim_insn = 103760320
gpu_ipc =      51.7642
gpu_tot_sim_cycle = 2226632
gpu_tot_sim_insn = 103760320
gpu_tot_ipc =      46.5997
gpu_tot_issued_cta = 1849
max_total_param_size = 0
gpu_stall_dramfull = 0
gpu_stall_icnt2sh    = 79678
partiton_reqs_in_parallel = 44098604
partiton_reqs_in_parallel_total    = 0
partiton_level_parallism =      22.0000
partiton_level_parallism_total  =      19.8051
partiton_reqs_in_parallel_util = 44098604
partiton_reqs_in_parallel_util_total    = 0
gpu_sim_cycle_parition_util = 2004482
gpu_tot_sim_cycle_parition_util    = 0
partiton_level_parallism_util =      22.0000
partiton_level_parallism_util_total  =      22.0000
partiton_replys_in_parallel = 113236
partiton_replys_in_parallel_total    = 0
L2_BW  =       5.3545 GB/Sec
L2_BW_total  =       4.8203 GB/Sec
gpu_total_sim_rate=15838

========= Core cache stats =========
L1I_cache:
	L1I_total_cache_accesses = 1933624
	L1I_total_cache_misses = 5986
	L1I_total_cache_miss_rate = 0.0031
	L1I_total_cache_pending_hits = 0
	L1I_total_cache_reservation_fails = 6846
L1D_cache:
	L1D_cache_core[0]: Access = 0, Miss = 0, Miss_rate = -nan, Pending_hits = 0, Reservation_fails = 0
	L1D_cache_core[1]: Access = 0, Miss = 0, Miss_rate = -nan, Pending_hits = 0, Reservation_fails = 0
	L1D_cache_core[2]: Access = 0, Miss = 0, Miss_rate = -nan, Pending_hits = 0, Reservation_fails = 0
	L1D_cache_core[3]: Access = 0, Miss = 0, Miss_rate = -nan, Pending_hits = 0, Reservation_fails = 0
	L1D_cache_core[4]: Access = 0, Miss = 0, Miss_rate = -nan, Pending_hits = 0, Reservation_fails = 0
	L1D_cache_core[5]: Access = 0, Miss = 0, Miss_rate = -nan, Pending_hits = 0, Reservation_fails = 0
	L1D_cache_core[6]: Access = 0, Miss = 0, Miss_rate = -nan, Pending_hits = 0, Reservation_fails = 0
	L1D_cache_core[7]: Access = 0, Miss = 0, Miss_rate = -nan, Pending_hits = 0, Reservation_fails = 0
	L1D_cache_core[8]: Access = 0, Miss = 0, Miss_rate = -nan, Pending_hits = 0, Reservation_fails = 0
	L1D_cache_core[9]: Access = 0, Miss = 0, Miss_rate = -nan, Pending_hits = 0, Reservation_fails = 0
	L1D_cache_core[10]: Access = 0, Miss = 0, Miss_rate = -nan, Pending_hits = 0, Reservation_fails = 0
	L1D_cache_core[11]: Access = 0, Miss = 0, Miss_rate = -nan, Pending_hits = 0, Reservation_fails = 0
	L1D_cache_core[12]: Access = 0, Miss = 0, Miss_rate = -nan, Pending_hits = 0, Reservation_fails = 0
	L1D_cache_core[13]: Access = 0, Miss = 0, Miss_rate = -nan, Pending_hits = 0, Reservation_fails = 0
	L1D_cache_core[14]: Access = 0, Miss = 0, Miss_rate = -nan, Pending_hits = 0, Reservation_fails = 0
	L1D_cache_core[15]: Access = 0, Miss = 0, Miss_rate = -nan, Pending_hits = 0, Reservation_fails = 0
	L1D_cache_core[16]: Access = 0, Miss = 0, Miss_rate = -nan, Pending_hits = 0, Reservation_fails = 0
	L1D_cache_core[17]: Access = 0, Miss = 0, Miss_rate = -nan, Pending_hits = 0, Reservation_fails = 0
	L1D_cache_core[18]: Access = 0, Miss = 0, Miss_rate = -nan, Pending_hits = 0, Reservation_fails = 0
	L1D_cache_core[19]: Access = 0, Miss = 0, Miss_rate = -nan, Pending_hits = 0, Reservation_fails = 0
	L1D_cache_core[20]: Access = 0, Miss = 0, Miss_rate = -nan, Pending_hits = 0, Reservation_fails = 0
	L1D_cache_core[21]: Access = 0, Miss = 0, Miss_rate = -nan, Pending_hits = 0, Reservation_fails = 0
	L1D_cache_core[22]: Access = 0, Miss = 0, Miss_rate = -nan, Pending_hits = 0, Reservation_fails = 0
	L1D_cache_core[23]: Access = 0, Miss = 0, Miss_rate = -nan, Pending_hits = 0, Reservation_fails = 0
	L1D_cache_core[24]: Access = 0, Miss = 0, Miss_rate = -nan, Pending_hits = 0, Reservation_fails = 0
	L1D_cache_core[25]: Access = 0, Miss = 0, Miss_rate = -nan, Pending_hits = 0, Reservation_fails = 0
	L1D_cache_core[26]: Access = 0, Miss = 0, Miss_rate = -nan, Pending_hits = 0, Reservation_fails = 0
	L1D_cache_core[27]: Access = 0, Miss = 0, Miss_rate = -nan, Pending_hits = 0, Reservation_fails = 0
	L1D_total_cache_accesses = 0
	L1D_total_cache_misses = 0
	L1D_total_cache_pending_hits = 0
	L1D_total_cache_reservation_fails = 0
	L1D_cache_data_port_util = 0.000
	L1D_cache_fill_port_util = 0.000
L1C_cache:
	L1C_total_cache_accesses = 192296
	L1C_total_cache_misses = 2195
	L1C_total_cache_miss_rate = 0.0114
	L1C_total_cache_pending_hits = 0
	L1C_total_cache_reservation_fails = 4886
L1T_cache:
	L1T_total_cache_accesses = 0
	L1T_total_cache_misses = 0
	L1T_total_cache_pending_hits = 0
	L1T_total_cache_reservation_fails = 0

Total_core_cache_stats:
	Total_core_cache_stats_breakdown[GLOBAL_ACC_R][HIT] = 0
	Total_core_cache_stats_breakdown[GLOBAL_ACC_R][HIT_RESERVED] = 0
	Total_core_cache_stats_breakdown[GLOBAL_ACC_R][MISS] = 0
	Total_core_cache_stats_breakdown[GLOBAL_ACC_R][RESERVATION_FAIL] = 0
	Total_core_cache_stats_breakdown[LOCAL_ACC_R][HIT] = 0
	Total_core_cache_stats_breakdown[LOCAL_ACC_R][HIT_RESERVED] = 0
	Total_core_cache_stats_breakdown[LOCAL_ACC_R][MISS] = 0
	Total_core_cache_stats_breakdown[LOCAL_ACC_R][RESERVATION_FAIL] = 0
	Total_core_cache_stats_breakdown[CONST_ACC_R][HIT] = 190101
	Total_core_cache_stats_breakdown[CONST_ACC_R][HIT_RESERVED] = 0
	Total_core_cache_stats_breakdown[CONST_ACC_R][MISS] = 2195
	Total_core_cache_stats_breakdown[CONST_ACC_R][RESERVATION_FAIL] = 4886
	Total_core_cache_stats_breakdown[TEXTURE_ACC_R][HIT] = 0
	Total_core_cache_stats_breakdown[TEXTURE_ACC_R][HIT_RESERVED] = 0
	Total_core_cache_stats_breakdown[TEXTURE_ACC_R][MISS] = 0
	Total_core_cache_stats_breakdown[TEXTURE_ACC_R][RESERVATION_FAIL] = 0
	Total_core_cache_stats_breakdown[GLOBAL_ACC_W][HIT] = 0
	Total_core_cache_stats_breakdown[GLOBAL_ACC_W][HIT_RESERVED] = 0
	Total_core_cache_stats_breakdown[GLOBAL_ACC_W][MISS] = 0
	Total_core_cache_stats_breakdown[GLOBAL_ACC_W][RESERVATION_FAIL] = 0
	Total_core_cache_stats_breakdown[LOCAL_ACC_W][HIT] = 0
	Total_core_cache_stats_breakdown[LOCAL_ACC_W][HIT_RESERVED] = 0
	Total_core_cache_stats_breakdown[LOCAL_ACC_W][MISS] = 0
	Total_core_cache_stats_breakdown[LOCAL_ACC_W][RESERVATION_FAIL] = 0
	Total_core_cache_stats_breakdown[L1_WRBK_ACC][HIT] = 0
	Total_core_cache_stats_breakdown[L1_WRBK_ACC][HIT_RESERVED] = 0
	Total_core_cache_stats_breakdown[L1_WRBK_ACC][MISS] = 0
	Total_core_cache_stats_breakdown[L1_WRBK_ACC][RESERVATION_FAIL] = 0
	Total_core_cache_stats_breakdown[L2_WRBK_ACC][HIT] = 0
	Total_core_cache_stats_breakdown[L2_WRBK_ACC][HIT_RESERVED] = 0
	Total_core_cache_stats_breakdown[L2_WRBK_ACC][MISS] = 0
	Total_core_cache_stats_breakdown[L2_WRBK_ACC][RESERVATION_FAIL] = 0
	Total_core_cache_stats_breakdown[INST_ACC_R][HIT] = 1927638
	Total_core_cache_stats_breakdown[INST_ACC_R][HIT_RESERVED] = 0
	Total_core_cache_stats_breakdown[INST_ACC_R][MISS] = 5986
	Total_core_cache_stats_breakdown[INST_ACC_R][RESERVATION_FAIL] = 6846
	Total_core_cache_stats_breakdown[L1_WR_ALLOC_R][HIT] = 0
	Total_core_cache_stats_breakdown[L1_WR_ALLOC_R][HIT_RESERVED] = 0
	Total_core_cache_stats_breakdown[L1_WR_ALLOC_R][MISS] = 0
	Total_core_cache_stats_breakdown[L1_WR_ALLOC_R][RESERVATION_FAIL] = 0
	Total_core_cache_stats_breakdown[L2_WR_ALLOC_R][HIT] = 0
	Total_core_cache_stats_breakdown[L2_WR_ALLOC_R][HIT_RESERVED] = 0
	Total_core_cache_stats_breakdown[L2_WR_ALLOC_R][MISS] = 0
	Total_core_cache_stats_breakdown[L2_WR_ALLOC_R][RESERVATION_FAIL] = 0
	Total_core_cache_stats_breakdown[CONST_ACC_R][TOTAL_ACCESS] = 192296
	Total_core_cache_stats_breakdown[INST_ACC_R][TOTAL_ACCESS] = 1933624
Shader 0 warp_id issue ditsribution:
warp_id:
0, 1, 2, 3, 4, 5, 6, 7, 8, 9, 10, 11, 12, 13, 14, 15, 16, 17, 18, 19, 20, 21, 22, 23, 24, 25, 26, 27, 28, 29, 30, 31, 32, 33, 34, 35, 36, 37, 38, 39, 40, 41, 42, 43, 44, 45, 46, 47, 48, 49, 50, 51, 52, 53, 54, 55, 
distro:
2167, 2814, 2811, 2811, 2814, 2812, 2821, 2253, 2249, 2815, 2814, 2814, 2817, 2811, 2820, 2252, 2498, 3123, 3126, 3123, 3129, 3121, 3129, 2501, 2243, 2811, 2810, 2808, 2813, 2809, 2813, 2248, 2242, 2810, 2810, 2809, 2812, 2806, 2814, 2250, 2246, 2810, 2810, 2812, 2813, 2807, 2818, 2253, 2245, 2814, 2815, 2809, 2816, 2670, 2681, 2172, 
gpgpu_n_tot_thrd_icount = 121236608
gpgpu_n_tot_w_icount = 3788644
gpgpu_n_stall_shd_mem = 81563
gpgpu_n_mem_read_local = 0
gpgpu_n_mem_write_local = 0
gpgpu_n_mem_read_global = 85680
gpgpu_n_mem_write_global = 27136
gpgpu_n_mem_texture = 0
gpgpu_n_mem_const = 56
gpgpu_n_load_insn  = 924800
gpgpu_n_store_insn = 262144
gpgpu_n_shmem_insn = 6218896
gpgpu_n_tex_insn = 0
gpgpu_n_const_mem_insn = 0
gpgpu_n_param_mem_insn = 6153472
gpgpu_n_shmem_bkconflict = 0
gpgpu_n_cache_bkconflict = 0
gpgpu_n_intrawarp_mshr_merge = 0
gpgpu_n_cmem_portconflict = 4886
gpgpu_stall_shd_mem[c_mem][bk_conf] = 4886
gpgpu_stall_shd_mem[c_mem][mshr_rc] = 0
gpgpu_stall_shd_mem[c_mem][icnt_rc] = 0
gpgpu_stall_shd_mem[c_mem][data_port_stall] = 0
gpgpu_stall_shd_mem[t_mem][mshr_rc] = 0
gpgpu_stall_shd_mem[t_mem][icnt_rc] = 0
gpgpu_stall_shd_mem[t_mem][data_port_stall] = 0
gpgpu_stall_shd_mem[s_mem][bk_conf] = 0
gpgpu_stall_shd_mem[gl_mem][bk_conf] = 0
gpgpu_stall_shd_mem[gl_mem][coal_stall] = 72905
gpgpu_stall_shd_mem[gl_mem][data_port_stall] = 0
gpgpu_stall_shd_mem[g_mem_ld][mshr_rc] = 0
gpgpu_stall_shd_mem[g_mem_ld][icnt_rc] = 3772
gpgpu_stall_shd_mem[g_mem_ld][wb_icnt_rc] = 0
gpgpu_stall_shd_mem[g_mem_ld][wb_rsrv_fail] = 0
gpgpu_stall_shd_mem[g_mem_st][mshr_rc] = 0
gpgpu_stall_shd_mem[g_mem_st][icnt_rc] = 0
gpgpu_stall_shd_mem[g_mem_st][wb_icnt_rc] = 0
gpgpu_stall_shd_mem[g_mem_st][wb_rsrv_fail] = 0
gpgpu_stall_shd_mem[l_mem_ld][mshr_rc] = 0
gpgpu_stall_shd_mem[l_mem_ld][icnt_rc] = 0
gpgpu_stall_shd_mem[l_mem_ld][wb_icnt_rc] = 0
gpgpu_stall_shd_mem[l_mem_ld][wb_rsrv_fail] = 0
gpgpu_stall_shd_mem[l_mem_st][mshr_rc] = 0
gpgpu_stall_shd_mem[l_mem_st][icnt_rc] = 0
gpgpu_stall_shd_mem[l_mem_ld][wb_icnt_rc] = 0
gpgpu_stall_shd_mem[l_mem_ld][wb_rsrv_fail] = 0
gpu_reg_bank_conflict_stalls = 0
Warp Occupancy Distribution:
Stall:187327	W0_Idle:13524600	W0_Scoreboard:95239186	W1:0	W2:0	W3:0	W4:0	W5:0	W6:0	W7:0	W8:0	W9:4200	W10:0	W11:0	W12:0	W13:4200	W14:172200	W15:0	W16:14080	W17:0	W18:12800	W19:0	W20:6460	W21:0	W22:0	W23:0	W24:872408	W25:0	W26:12800	W27:0	W28:812308	W29:0	W30:0	W31:0	W32:1877188
traffic_breakdown_coretomem[CONST_ACC_R] = 448 {8:56,}
traffic_breakdown_coretomem[GLOBAL_ACC_R] = 685440 {8:85680,}
traffic_breakdown_coretomem[GLOBAL_ACC_W] = 1970176 {40:10752,72:10752,136:5632,}
traffic_breakdown_coretomem[INST_ACC_R] = 2912 {8:364,}
traffic_breakdown_memtocore[CONST_ACC_R] = 4032 {72:56,}
traffic_breakdown_memtocore[GLOBAL_ACC_R] = 7126400 {40:27200,72:29920,136:28560,}
traffic_breakdown_memtocore[GLOBAL_ACC_W] = 217088 {8:27136,}
traffic_breakdown_memtocore[INST_ACC_R] = 49504 {136:364,}
maxmrqlatency = 100 
maxdqlatency = 0 
maxmflatency = 161504 
averagemflatency = 49551 
max_icnt2mem_latency = 161244 
max_icnt2sh_latency = 2226631 
mrq_lat_table:22174 	2176 	1382 	6124 	8593 	7164 	185 	0 	0 	0 	0 	0 	0 	0 	0 	0 	0 	0 	0 	0 	0 	0 	0 	0 	0 	0 	0 	0 	0 	0 	0 	0 	
dq_lat_table:0 	0 	0 	0 	0 	0 	0 	0 	0 	0 	0 	0 	0 	0 	0 	0 	0 	0 	0 	0 	0 	0 	0 	0 	0 	0 	0 	0 	0 	0 	0 	0 	
mf_lat_table:0 	0 	0 	0 	0 	0 	0 	24120 	14982 	75 	45 	470 	610 	576 	3698 	26901 	35805 	5590 	0 	0 	0 	0 	0 	0 	0 	0 	0 	0 	0 	0 	0 	0 	
icnt2mem_lat_table:0 	0 	16689 	1063 	28 	0 	21682 	4 	36 	70 	148 	336 	610 	576 	3720 	26948 	35796 	5530 	0 	0 	0 	0 	0 	0 	
icnt2sh_lat_table:0 	0 	29379 	47144 	9207 	6 	0 	0 	0 	0 	0 	0 	0 	0 	0 	0 	0 	0 	318 	6042 	15900 	4876 	0 	0 	
mf_lat_pw_table:0 	0 	0 	0 	0 	0 	0 	114 	102 	1 	0 	4 	4 	6 	53 	222 	280 	37 	0 	0 	0 	0 	0 	0 	0 	0 	0 	0 	0 	0 	0 	0 	
maximum concurrent accesses to same row:
dram[0]:        63        66        52        54        42        44        48        48        60        62        52        50        60        62        58        62 
dram[1]:        64        65        54        57        43        43        51        53        62        66        52        54        59        61        56        55 
dram[2]:        64        66        55        57        47        49        55        57        63        63        53        58        56        56        56        58 
dram[3]:        64        65        55        57        46        48        56        56        64        64        56        55        55        58        54        57 
dram[4]:        64        66        51        52        48        47        56        57        59        61        56        58        50        52        56        56 
dram[5]:        63        66        48        48        47        49        55        57        56        56        59        61        52        52        55        58 
dram[6]:        63        66        46        50        46        48        52        54        55        58        60        61        50        54        55        56 
dram[7]:        64        65        47        48        43        43        54        57        50        52        59        62        55        56        56        57 
dram[8]:        64        66        48        49        38        40        52        51        52        55        56        55        56        57        54        58 
dram[9]:        64        65        49        54        38        39        51        54        53        58        56        58        59        62        56        55 
dram[10]:        64        66        52        53        38        40        46        47        58        59        53        58        60        60        56        58 
maximum service time to same row:
dram[0]:    385921    385922    452593    452592    442641    442642    551583    551583    542583    542587    448728    448744    523606    523604    372894    372797 
dram[1]:    385916    385922    452593    452592    411490    411491    460409    460408    542505    542509    448745    448844    523604    523604    372934    372950 
dram[2]:    391142    391155    452593    452592    411512    411514    460408    460409    542596    542596    448756    448765    523604    523604    372838    372852 
dram[3]:    391147    391145    452593    452592    411513    411520    460410    460409    542689    542850    448729    448745    523604    523608    372886    372796 
dram[4]:    391153    391155    452593    452592    411489    411489    460408    460407    563275    563215    448745    448844    523609    523613    372934    372947 
dram[5]:    391152    391155    452595    452592    411511    411512    460407    460408    563217    563213    448756    448765    620547    620543    372939    372933 
dram[6]:    391148    391145    452592    452593    411512    411515    460407    460408    563214    563221    448897    448933    620543    620561    372961    373139 
dram[7]:    391124    391136    452599    452596    411517    411517    460408    460407    542488    542501    448945    449027    620665    620563    377970    377956 
dram[8]:    391133    391133    452594    452594    411518    411560    460411    460411    542585    542587    461699    461642    523602    523604    378028    377875 
dram[9]:    391128    391132    452594    452595    442612    442614    517719    517720    542504    542512    461644    461730    523601    523604    377879    377886 
dram[10]:    349443    349451    452594    452594    442738    442635    551583    551584    542484    542498    461718    461716    523604    523601    372847    372868 
average row accesses per activate:
dram[0]: 12.304348 14.047619 13.600000 13.450000 10.592592 10.629630 12.272727 12.318182 12.315789 12.526316  9.142858  9.961538 10.407408 11.520000 12.086957 13.523809 
dram[1]: 13.285714 12.434783 12.272727 13.750000 10.407408 11.840000 12.045455 12.500000 12.526316 12.684211 10.000000 10.230769 11.360000 11.520000 13.333333 13.809524 
dram[2]: 11.120000 12.652174 13.450000 13.750000 10.555555 10.703704 12.227273 12.454545 12.578947 12.421053 10.400000  9.888889 10.555555 11.320000 13.523809 13.809524 
dram[3]: 11.240000 12.782609 12.136364 13.700000 10.666667 10.592592 12.181818 12.409091 12.526316 12.473684  9.629630  9.703704 10.481482 11.560000 12.260870 12.652174 
dram[4]: 12.304348 13.857142 12.090909 12.227273 10.592592 11.037037 12.136364 12.363636 12.421053 12.526316  9.370370  9.777778 11.360000 11.640000 12.217391 11.320000 
dram[5]: 12.909091 14.800000 12.000000 11.954545 11.791667 12.125000 12.136364 12.409091 12.473684 12.578947  9.629630 10.520000 10.518518 11.320000 12.086957 12.434783 
dram[6]: 14.200000 14.700000 10.708333 12.318182 11.916667 12.000000 12.045455 12.181818 12.526316 12.368421  9.370370  9.923077 11.120000 12.347826 12.173913 12.391304 
dram[7]: 13.181818 14.600000 12.523809 12.904762 10.923077 11.115385 12.045455 12.500000 12.526316 12.315789  8.366667  9.250000 11.956522 12.304348 11.416667 10.730769 
dram[8]: 12.347826 14.142858 11.565217 13.578947 10.444445 10.666667 12.090909 12.136364 12.368421 12.736842  8.500000  9.961538 11.120000 12.304348  9.750000 10.884615 
dram[9]: 13.571428 13.761905 10.958333 12.409091 10.481482 10.851851 11.954545 12.272727 12.210526 12.368421  9.107142 10.875000 11.080000 11.200000 10.692307 11.000000 
dram[10]: 11.360000 14.000000 13.250000 12.454545 11.200000 11.280000 11.863636 12.363636 12.473684 12.052631  9.884615 10.230769 10.296296 11.280000 12.727273 13.666667 
average row locality = 47798/4084 = 11.703722
number of total memory accesses made:
dram[0]:         0         0         0         0         0         0         0         0         0         0         0         0         0         0         0         0 
dram[1]:         0         0         0         0         0         0         0         0         0         0         0         0         0         0         0         0 
dram[2]:         0         0         0         0         0         0         0         0         0         0         0         0         0         0         0         0 
dram[3]:         0         0         0         0         0         0         0         0         0         0         0         0         0         0         0         0 
dram[4]:         0         0         0         0         0         0         0         0         0         0         0         0         0         0         0         0 
dram[5]:         0         0         0         0         0         0         0         0         0         0         0         0         0         0         0         0 
dram[6]:         0         0         0         0         0         0         0         0         0         0         0         0         0         0         0         0 
dram[7]:         0         0         0         0         0         0         0         0         0         0         0         0         0         0         0         0 
dram[8]:         0         0         0         0         0         0         0         0         0         0         0         0         0         0         0         0 
dram[9]:         0         0         0         0         0         0         0         0         0         0         0         0         0         0         0         0 
dram[10]:         0         0         0         0         0         0         0         0         0         0         0         0         0         0         0         0 
total accesses: 0
min_bank_accesses = 0!
min_chip_accesses = 0!
number of total read accesses:
dram[0]:       145       144       144       144       144       144       139       139       128       128       130       130       144       144       144       144 
dram[1]:       144       144       144       144       144       144       139       139       128       128       131       131       144       144       144       144 
dram[2]:       144       144       144       144       144       144       138       138       128       128       131       131       144       144       144       144 
dram[3]:       144       144       144       144       144       144       138       138       128       128       131       131       144       144       144       144 
dram[4]:       144       144       144       144       144       144       138       138       128       128       131       131       144       144       145       145 
dram[5]:       144       144       144       144       144       144       138       138       128       128       131       131       144       144       145       145 
dram[6]:       144       144       144       144       144       144       138       138       128       128       131       131       144       144       145       145 
dram[7]:       144       144       144       144       144       144       138       138       128       128       131       131       144       144       145       145 
dram[8]:       144       144       144       144       144       144       138       138       128       128       131       131       144       144       145       145 
dram[9]:       144       144       144       144       144       144       138       138       128       128       131       131       144       144       145       145 
dram[10]:       144       144       144       144       144       144       138       138       128       128       131       131       144       144       145       144 
total reads: 24590
bank skew: 145/128 = 1.13
chip skew: 2236/2234 = 1.00
number of total write accesses:
dram[0]:       138       151       128       125       142       143       131       132       106       110       126       129       137       144       134       140 
dram[1]:       135       142       126       131       137       152       126       136       110       113       129       135       140       144       136       146 
dram[2]:       134       147       125       131       141       145       131       136       111       108       129       136       141       139       140       146 
dram[3]:       137       150       123       130       144       142       130       135       110       109       129       131       139       145       138       147 
dram[4]:       139       147       122       125       142       154       129       134       108       110       122       133       140       147       136       138 
dram[5]:       140       152       120       119       139       147       129       135       109       111       129       132       140       139       133       141 
dram[6]:       140       150       113       127       142       144       127       130       110       107       122       127       134       140       135       140 
dram[7]:       146       148       119       127       140       145       127       137       110       106       120       128       131       139       129       134 
dram[8]:       140       153       122       114       138       144       128       129       107       114       124       128       134       139       128       138 
dram[9]:       141       145       119       129       139       149       125       132       104       107       124       130       133       136       133       141 
dram[10]:       140       150       121       130       136       138       123       134       109       101       126       135       134       138       135       143 
total reads: 23208
bank skew: 154/101 = 1.52
chip skew: 2140/2080 = 1.03
average mf latency per bank:
dram[0]:     126055    123468    112641    114709     96122     96039     88989     89603    114073    115185    144521    145582    137087    137365    121440    122147
dram[1]:     121390    117634    113310    114251     98830     97008     91643     90382    119060    122386    143640    141765    131538    130213    122821    120290
dram[2]:     121734    119713    114016    112612     95619     95970     91270     90327    120218    121929    141434    142148    124620    127253    122738    123815
dram[3]:     118560    116033    115543    113956     95471     96899     90159     88476    118034    123194    139413    140429    124899    125244    128698    128196
dram[4]:     120101    118004    116048    117734     95115     93016     86973     86127    123478    124066    137722    134585    120440    119496    131614    131120
dram[5]:     123784    123664    116656    117410     95918     95976     83398     82367    120992    121464    132357    134858    117141    120992    131744    130866
dram[6]:     130454    129304    118031    114748     95573     96050     80978     81229    120236    126529    138693    140284    121159    121973    128956    128527
dram[7]:     130489    130971    115712    114246     94680     94439     80707     79587    122099    124167    139034    139174    125976    124723    127784    127395
dram[8]:     133823    131762    113521    116891     97822     97701     79476     81071    120527    119179    137905    139461    126058    128140    127955    125677
dram[9]:     135119    133237    110723    109677     97396     97105     84915     85234    122750    126264    142554    143108    131238    132590    121179    119805
dram[10]:     128053    124832    111618    110190     99009     99597     88910     87110    123202    127060    143357    143127    133988    134203    120786    120582
maximum mf latency per bank:
dram[0]:     158724    158732    132556    132554    140339    140346    114345    114297    161483    161484    161500    161500    161489    161491    158895    158884
dram[1]:     158768    158768    132565    132580    140321    140323    114343    114354    161486    161497    161485    161500    161483    161491    158895    158883
dram[2]:     153585    153585    132553    132559    140317    140314    114281    114182    161483    161490    161492    161501    161485    161484    158888    158889
dram[3]:     148397    148397    132545    132563    140324    140132    114167    114027    161488    161494    161480    161483    161486    161485    158884    158877
dram[4]:     143238    143214    132541    132564    137739    137571    108977    108832    161497    161492    161483    161486    161489    161490    158883    158877
dram[5]:     158755    158754    132538    132548    127390    127413     95882     95881    161488    161490    161486    161485    161494    161488    148476    148467
dram[6]:     158751    158736    132515    132531    127378    127386     95891     95886    161484    161486    161500    161493    161497    161496    148474    148464
dram[7]:     158736    158724    132524    132513    140352    140368    114366    114357    161486    161486    161490    161495    161497    161497    148469    148469
dram[8]:     158754    158757    132498    132505    140342    140346    114348    114290    161488    161484    161492    161489    161491    161496    158884    158883
dram[9]:     158776    158779    132573    132576    140324    140326    114344    114348    161490    161494    161494    161498    161478    161482    158884    158885
dram[10]:     158735    158722    132554    132555    140348    140361    114370    114362    161488    161486    161492    161504    161477    161479    158893    158884
Memory Partition 0: 
Cache L2_bank_000:
MSHR contents

Cache L2_bank_001:
MSHR contents

In Dram Latency Queue (total = 0): 
DRAM[0]: 16 bks, busW=4 BL=8 CL=12, tRRD=2 tCCD=6, tRCD=12 tRAS=28 tRP=12 tRC=40
n_cmd=3722028 n_nop=3708061 n_act=371 n_pre=355 n_req=4351 n_rd=8940 n_write=4301 bw_util=0.007115
n_activity=48974 dram_eff=0.5407
bk0: 580a 3718326i bk1: 576a 3717696i bk2: 576a 3718535i bk3: 576a 3717984i bk4: 576a 3718277i bk5: 576a 3717661i bk6: 556a 3718534i bk7: 556a 3717932i bk8: 512a 3719047i bk9: 512a 3718517i bk10: 520a 3718427i bk11: 520a 3717948i bk12: 576a 3718173i bk13: 576a 3717544i bk14: 576a 3718461i bk15: 576a 3717586i 
dram_util_bins: 0 0 0 0 0 0 0 0 0 0
dram_eff_bins: 0 0 0 0 0 0 0 0 0 0
mrqq: max=15 avg=0.0278214
Memory Partition 1: 
Cache L2_bank_002:
MSHR contents

Cache L2_bank_003:
MSHR contents

In Dram Latency Queue (total = 0): 
DRAM[1]: 16 bks, busW=4 BL=8 CL=12, tRRD=2 tCCD=6, tRCD=12 tRAS=28 tRP=12 tRC=40
n_cmd=3722028 n_nop=3708009 n_act=364 n_pre=348 n_req=4374 n_rd=8944 n_write=4363 bw_util=0.00715
n_activity=49203 dram_eff=0.5409
bk0: 576a 3718445i bk1: 576a 3717716i bk2: 576a 3718460i bk3: 576a 3717948i bk4: 576a 3718295i bk5: 576a 3717534i bk6: 556a 3718486i bk7: 556a 3717823i bk8: 512a 3718988i bk9: 512a 3718432i bk10: 524a 3718551i bk11: 524a 3717893i bk12: 576a 3718244i bk13: 576a 3717533i bk14: 576a 3718390i bk15: 576a 3717602i 
dram_util_bins: 0 0 0 0 0 0 0 0 0 0
dram_eff_bins: 0 0 0 0 0 0 0 0 0 0
mrqq: max=15 avg=0.0280207
Memory Partition 2: 
Cache L2_bank_004:
MSHR contents

Cache L2_bank_005:
MSHR contents

In Dram Latency Queue (total = 0): 
DRAM[2]: 16 bks, busW=4 BL=8 CL=12, tRRD=2 tCCD=6, tRCD=12 tRAS=28 tRP=12 tRC=40
n_cmd=3722028 n_nop=3708044 n_act=370 n_pre=354 n_req=4374 n_rd=8936 n_write=4324 bw_util=0.007125
n_activity=49251 dram_eff=0.5385
bk0: 576a 3718456i bk1: 576a 3717692i bk2: 576a 3718589i bk3: 576a 3717916i bk4: 576a 3718238i bk5: 576a 3717600i bk6: 552a 3718492i bk7: 552a 3717889i bk8: 512a 3718986i bk9: 512a 3718425i bk10: 524a 3718468i bk11: 524a 3717919i bk12: 576a 3718227i bk13: 576a 3717558i bk14: 576a 3718295i bk15: 576a 3717625i 
dram_util_bins: 0 0 0 0 0 0 0 0 0 0
dram_eff_bins: 0 0 0 0 0 0 0 0 0 0
mrqq: max=17 avg=0.0291145
Memory Partition 3: 
Cache L2_bank_006:
MSHR contents

Cache L2_bank_007:
MSHR contents

In Dram Latency Queue (total = 0): 
DRAM[3]: 16 bks, busW=4 BL=8 CL=12, tRRD=2 tCCD=6, tRCD=12 tRAS=28 tRP=12 tRC=40
n_cmd=3722028 n_nop=3707982 n_act=378 n_pre=362 n_req=4373 n_rd=8936 n_write=4370 bw_util=0.00715
n_activity=49300 dram_eff=0.5398
bk0: 576a 3718276i bk1: 576a 3717600i bk2: 576a 3718548i bk3: 576a 3717914i bk4: 576a 3718240i bk5: 576a 3717637i bk6: 552a 3718535i bk7: 552a 3717889i bk8: 512a 3718997i bk9: 512a 3718504i bk10: 524a 3718425i bk11: 524a 3717845i bk12: 576a 3718259i bk13: 576a 3717665i bk14: 576a 3718306i bk15: 576a 3717617i 
dram_util_bins: 0 0 0 0 0 0 0 0 0 0
dram_eff_bins: 0 0 0 0 0 0 0 0 0 0
mrqq: max=15 avg=0.0285347
Memory Partition 4: 
Cache L2_bank_008:
MSHR contents

Cache L2_bank_009:
MSHR contents

In Dram Latency Queue (total = 0): 
DRAM[4]: 16 bks, busW=4 BL=8 CL=12, tRRD=2 tCCD=6, tRCD=12 tRAS=28 tRP=12 tRC=40
n_cmd=3722028 n_nop=3708009 n_act=376 n_pre=360 n_req=4362 n_rd=8944 n_write=4339 bw_util=0.007138
n_activity=49630 dram_eff=0.5353
bk0: 576a 3718334i bk1: 576a 3717652i bk2: 576a 3718533i bk3: 576a 3717980i bk4: 576a 3718347i bk5: 576a 3717621i bk6: 552a 3718477i bk7: 552a 3717934i bk8: 512a 3719059i bk9: 512a 3718357i bk10: 524a 3718435i bk11: 524a 3717898i bk12: 576a 3718388i bk13: 576a 3717622i bk14: 580a 3718396i bk15: 580a 3717693i 
dram_util_bins: 0 0 0 0 0 0 0 0 0 0
dram_eff_bins: 0 0 0 0 0 0 0 0 0 0
mrqq: max=15 avg=0.0273434
Memory Partition 5: 
Cache L2_bank_010:
MSHR contents

Cache L2_bank_011:
MSHR contents

In Dram Latency Queue (total = 0): 
DRAM[5]: 16 bks, busW=4 BL=8 CL=12, tRRD=2 tCCD=6, tRCD=12 tRAS=28 tRP=12 tRC=40
n_cmd=3722028 n_nop=3708091 n_act=366 n_pre=350 n_req=4351 n_rd=8944 n_write=4277 bw_util=0.007104
n_activity=49074 dram_eff=0.5388
bk0: 576a 3718348i bk1: 576a 3717678i bk2: 576a 3718618i bk3: 576a 3718077i bk4: 576a 3718380i bk5: 576a 3717632i bk6: 552a 3718540i bk7: 552a 3717912i bk8: 512a 3718939i bk9: 512a 3718420i bk10: 524a 3718442i bk11: 524a 3717976i bk12: 576a 3718326i bk13: 576a 3717706i bk14: 580a 3718502i bk15: 580a 3717606i 
dram_util_bins: 0 0 0 0 0 0 0 0 0 0
dram_eff_bins: 0 0 0 0 0 0 0 0 0 0
mrqq: max=15 avg=0.0269375
Memory Partition 6: 
Cache L2_bank_012:
MSHR contents

Cache L2_bank_013:
MSHR contents

In Dram Latency Queue (total = 0): 
DRAM[6]: 16 bks, busW=4 BL=8 CL=12, tRRD=2 tCCD=6, tRCD=12 tRAS=28 tRP=12 tRC=40
n_cmd=3722028 n_nop=3708106 n_act=363 n_pre=347 n_req=4324 n_rd=8944 n_write=4268 bw_util=0.007099
n_activity=48741 dram_eff=0.5421
bk0: 576a 3718424i bk1: 576a 3717604i bk2: 576a 3718668i bk3: 576a 3717939i bk4: 576a 3718366i bk5: 576a 3717683i bk6: 552a 3718479i bk7: 552a 3717996i bk8: 512a 3718956i bk9: 512a 3718509i bk10: 524a 3718392i bk11: 524a 3717888i bk12: 576a 3718411i bk13: 576a 3717739i bk14: 580a 3718382i bk15: 580a 3717693i 
dram_util_bins: 0 0 0 0 0 0 0 0 0 0
dram_eff_bins: 0 0 0 0 0 0 0 0 0 0
mrqq: max=15 avg=0.0264791
Memory Partition 7: 
Cache L2_bank_014:
MSHR contents

Cache L2_bank_015:
MSHR contents

In Dram Latency Queue (total = 0): 
DRAM[7]: 16 bks, busW=4 BL=8 CL=12, tRRD=2 tCCD=6, tRCD=12 tRAS=28 tRP=12 tRC=40
n_cmd=3722028 n_nop=3708080 n_act=372 n_pre=356 n_req=4322 n_rd=8944 n_write=4276 bw_util=0.007104
n_activity=49207 dram_eff=0.5373
bk0: 576a 3718411i bk1: 576a 3717664i bk2: 576a 3718571i bk3: 576a 3717933i bk4: 576a 3718373i bk5: 576a 3717663i bk6: 552a 3718523i bk7: 552a 3717881i bk8: 512a 3718987i bk9: 512a 3718420i bk10: 524a 3718411i bk11: 524a 3717830i bk12: 576a 3718494i bk13: 576a 3717783i bk14: 580a 3718488i bk15: 580a 3717663i 
dram_util_bins: 0 0 0 0 0 0 0 0 0 0
dram_eff_bins: 0 0 0 0 0 0 0 0 0 0
mrqq: max=17 avg=0.0259651
Memory Partition 8: 
Cache L2_bank_016:
MSHR contents

Cache L2_bank_017:
MSHR contents

In Dram Latency Queue (total = 0): 
DRAM[8]: 16 bks, busW=4 BL=8 CL=12, tRRD=2 tCCD=6, tRCD=12 tRAS=28 tRP=12 tRC=40
n_cmd=3722028 n_nop=3708114 n_act=380 n_pre=364 n_req=4316 n_rd=8944 n_write=4226 bw_util=0.007077
n_activity=49371 dram_eff=0.5335
bk0: 576a 3718220i bk1: 576a 3717572i bk2: 576a 3718539i bk3: 576a 3718119i bk4: 576a 3718354i bk5: 576a 3717647i bk6: 552a 3718610i bk7: 552a 3718030i bk8: 512a 3719010i bk9: 512a 3718462i bk10: 524a 3718506i bk11: 524a 3718063i bk12: 576a 3718441i bk13: 576a 3717789i bk14: 580a 3718301i bk15: 580a 3717575i 
dram_util_bins: 0 0 0 0 0 0 0 0 0 0
dram_eff_bins: 0 0 0 0 0 0 0 0 0 0
mrqq: max=14 avg=0.0253303
Memory Partition 9: 
Cache L2_bank_018:
MSHR contents

Cache L2_bank_019:
MSHR contents

In Dram Latency Queue (total = 0): 
DRAM[9]: 16 bks, busW=4 BL=8 CL=12, tRRD=2 tCCD=6, tRCD=12 tRAS=28 tRP=12 tRC=40
n_cmd=3722028 n_nop=3708084 n_act=378 n_pre=362 n_req=4323 n_rd=8944 n_write=4260 bw_util=0.007095
n_activity=49074 dram_eff=0.5381
bk0: 576a 3718332i bk1: 576a 3717573i bk2: 576a 3718553i bk3: 576a 3717989i bk4: 576a 3718281i bk5: 576a 3717590i bk6: 552a 3718577i bk7: 552a 3717954i bk8: 512a 3719088i bk9: 512a 3718484i bk10: 524a 3718385i bk11: 524a 3718042i bk12: 576a 3718345i bk13: 576a 3717617i bk14: 580a 3718222i bk15: 580a 3717534i 
dram_util_bins: 0 0 0 0 0 0 0 0 0 0
dram_eff_bins: 0 0 0 0 0 0 0 0 0 0
mrqq: max=15 avg=0.0263542
Memory Partition 10: 
Cache L2_bank_020:
MSHR contents

Cache L2_bank_021:
MSHR contents

In Dram Latency Queue (total = 0): 
DRAM[10]: 16 bks, busW=4 BL=8 CL=12, tRRD=2 tCCD=6, tRCD=12 tRAS=28 tRP=12 tRC=40
n_cmd=3722028 n_nop=3708102 n_act=367 n_pre=351 n_req=4328 n_rd=8940 n_write=4268 bw_util=0.007097
n_activity=49064 dram_eff=0.5384
bk0: 576a 3718316i bk1: 576a 3717625i bk2: 576a 3718522i bk3: 576a 3717895i bk4: 576a 3718292i bk5: 576a 3717622i bk6: 552a 3718522i bk7: 552a 3717958i bk8: 512a 3719048i bk9: 512a 3718507i bk10: 524a 3718438i bk11: 524a 3717865i bk12: 576a 3718354i bk13: 576a 3717703i bk14: 580a 3718371i bk15: 576a 3717631i 
dram_util_bins: 0 0 0 0 0 0 0 0 0 0
dram_eff_bins: 0 0 0 0 0 0 0 0 0 0
mrqq: max=18 avg=0.0265723

========= L2 cache stats =========
L2_cache_bank[0]: Access = 5094, Miss = 1118, Miss_rate = 0.219, Pending_hits = 3197, Reservation_fails = 0
L2_cache_bank[1]: Access = 5211, Miss = 1117, Miss_rate = 0.214, Pending_hits = 3241, Reservation_fails = 0
L2_cache_bank[2]: Access = 5049, Miss = 1118, Miss_rate = 0.221, Pending_hits = 3169, Reservation_fails = 0
L2_cache_bank[3]: Access = 5215, Miss = 1118, Miss_rate = 0.214, Pending_hits = 3258, Reservation_fails = 0
L2_cache_bank[4]: Access = 5040, Miss = 1117, Miss_rate = 0.222, Pending_hits = 3200, Reservation_fails = 0
L2_cache_bank[5]: Access = 5213, Miss = 1117, Miss_rate = 0.214, Pending_hits = 3245, Reservation_fails = 0
L2_cache_bank[6]: Access = 5043, Miss = 1117, Miss_rate = 0.221, Pending_hits = 3177, Reservation_fails = 0
L2_cache_bank[7]: Access = 5214, Miss = 1117, Miss_rate = 0.214, Pending_hits = 3235, Reservation_fails = 0
L2_cache_bank[8]: Access = 5074, Miss = 1118, Miss_rate = 0.220, Pending_hits = 3202, Reservation_fails = 0
L2_cache_bank[9]: Access = 5240, Miss = 1118, Miss_rate = 0.213, Pending_hits = 3278, Reservation_fails = 0
L2_cache_bank[10]: Access = 5066, Miss = 1118, Miss_rate = 0.221, Pending_hits = 3201, Reservation_fails = 0
L2_cache_bank[11]: Access = 5240, Miss = 1118, Miss_rate = 0.213, Pending_hits = 3281, Reservation_fails = 0
L2_cache_bank[12]: Access = 5076, Miss = 1118, Miss_rate = 0.220, Pending_hits = 3194, Reservation_fails = 0
L2_cache_bank[13]: Access = 5245, Miss = 1118, Miss_rate = 0.213, Pending_hits = 3247, Reservation_fails = 0
L2_cache_bank[14]: Access = 5072, Miss = 1118, Miss_rate = 0.220, Pending_hits = 3195, Reservation_fails = 0
L2_cache_bank[15]: Access = 5240, Miss = 1118, Miss_rate = 0.213, Pending_hits = 3250, Reservation_fails = 0
L2_cache_bank[16]: Access = 5065, Miss = 1118, Miss_rate = 0.221, Pending_hits = 3194, Reservation_fails = 0
L2_cache_bank[17]: Access = 5239, Miss = 1118, Miss_rate = 0.213, Pending_hits = 3292, Reservation_fails = 0
L2_cache_bank[18]: Access = 5075, Miss = 1118, Miss_rate = 0.220, Pending_hits = 3205, Reservation_fails = 0
L2_cache_bank[19]: Access = 5242, Miss = 1118, Miss_rate = 0.213, Pending_hits = 3266, Reservation_fails = 0
L2_cache_bank[20]: Access = 5070, Miss = 1118, Miss_rate = 0.221, Pending_hits = 3205, Reservation_fails = 0
L2_cache_bank[21]: Access = 5213, Miss = 1117, Miss_rate = 0.214, Pending_hits = 3236, Reservation_fails = 0
L2_total_cache_accesses = 113236
L2_total_cache_misses = 24590
L2_total_cache_miss_rate = 0.2172
L2_total_cache_pending_hits = 70968
L2_total_cache_reservation_fails = 0
L2_total_cache_breakdown:
	L2_cache_stats_breakdown[GLOBAL_ACC_R][HIT] = 13707
	L2_cache_stats_breakdown[GLOBAL_ACC_R][HIT_RESERVED] = 55589
	L2_cache_stats_breakdown[GLOBAL_ACC_R][MISS] = 16384
	L2_cache_stats_breakdown[GLOBAL_ACC_R][RESERVATION_FAIL] = 0
	L2_cache_stats_breakdown[LOCAL_ACC_R][HIT] = 0
	L2_cache_stats_breakdown[LOCAL_ACC_R][HIT_RESERVED] = 0
	L2_cache_stats_breakdown[LOCAL_ACC_R][MISS] = 0
	L2_cache_stats_breakdown[LOCAL_ACC_R][RESERVATION_FAIL] = 0
	L2_cache_stats_breakdown[CONST_ACC_R][HIT] = 28
	L2_cache_stats_breakdown[CONST_ACC_R][HIT_RESERVED] = 27
	L2_cache_stats_breakdown[CONST_ACC_R][MISS] = 1
	L2_cache_stats_breakdown[CONST_ACC_R][RESERVATION_FAIL] = 0
	L2_cache_stats_breakdown[TEXTURE_ACC_R][HIT] = 0
	L2_cache_stats_breakdown[TEXTURE_ACC_R][HIT_RESERVED] = 0
	L2_cache_stats_breakdown[TEXTURE_ACC_R][MISS] = 0
	L2_cache_stats_breakdown[TEXTURE_ACC_R][RESERVATION_FAIL] = 0
	L2_cache_stats_breakdown[GLOBAL_ACC_W][HIT] = 3928
	L2_cache_stats_breakdown[GLOBAL_ACC_W][HIT_RESERVED] = 15016
	L2_cache_stats_breakdown[GLOBAL_ACC_W][MISS] = 8192
	L2_cache_stats_breakdown[GLOBAL_ACC_W][RESERVATION_FAIL] = 0
	L2_cache_stats_breakdown[LOCAL_ACC_W][HIT] = 0
	L2_cache_stats_breakdown[LOCAL_ACC_W][HIT_RESERVED] = 0
	L2_cache_stats_breakdown[LOCAL_ACC_W][MISS] = 0
	L2_cache_stats_breakdown[LOCAL_ACC_W][RESERVATION_FAIL] = 0
	L2_cache_stats_breakdown[L1_WRBK_ACC][HIT] = 0
	L2_cache_stats_breakdown[L1_WRBK_ACC][HIT_RESERVED] = 0
	L2_cache_stats_breakdown[L1_WRBK_ACC][MISS] = 0
	L2_cache_stats_breakdown[L1_WRBK_ACC][RESERVATION_FAIL] = 0
	L2_cache_stats_breakdown[L2_WRBK_ACC][HIT] = 0
	L2_cache_stats_breakdown[L2_WRBK_ACC][HIT_RESERVED] = 0
	L2_cache_stats_breakdown[L2_WRBK_ACC][MISS] = 0
	L2_cache_stats_breakdown[L2_WRBK_ACC][RESERVATION_FAIL] = 0
	L2_cache_stats_breakdown[INST_ACC_R][HIT] = 15
	L2_cache_stats_breakdown[INST_ACC_R][HIT_RESERVED] = 336
	L2_cache_stats_breakdown[INST_ACC_R][MISS] = 13
	L2_cache_stats_breakdown[INST_ACC_R][RESERVATION_FAIL] = 0
	L2_cache_stats_breakdown[L1_WR_ALLOC_R][HIT] = 0
	L2_cache_stats_breakdown[L1_WR_ALLOC_R][HIT_RESERVED] = 0
	L2_cache_stats_breakdown[L1_WR_ALLOC_R][MISS] = 0
	L2_cache_stats_breakdown[L1_WR_ALLOC_R][RESERVATION_FAIL] = 0
	L2_cache_stats_breakdown[L2_WR_ALLOC_R][HIT] = 0
	L2_cache_stats_breakdown[L2_WR_ALLOC_R][HIT_RESERVED] = 0
	L2_cache_stats_breakdown[L2_WR_ALLOC_R][MISS] = 0
	L2_cache_stats_breakdown[L2_WR_ALLOC_R][RESERVATION_FAIL] = 0
	L2_cache_stats_breakdown[GLOBAL_ACC_R][TOTAL_ACCESS] = 85680
	L2_cache_stats_breakdown[CONST_ACC_R][TOTAL_ACCESS] = 56
	L2_cache_stats_breakdown[GLOBAL_ACC_W][TOTAL_ACCESS] = 27136
	L2_cache_stats_breakdown[INST_ACC_R][TOTAL_ACCESS] = 364
L2_cache_data_port_util = 0.001
L2_cache_fill_port_util = 0.002

icnt_total_pkts_mem_to_simt=316084
icnt_total_pkts_simt_to_mem=168020
LD_mem_lat_dist  0 0 0 0 0 0 0 0 0 0 0 0 0 0 0 0 0 0 0 0 0 0 0 0 0 0 0
ST_mem_lat_dist  0 0 0 0 0 0 0 0 0 0 0 0 0 0 0 0 0 0 0 0 0 0 0 0 0 0 0
----------------------------Interconnect-DETAILS--------------------------------
Class 0:
Packet latency average = 13.3233
	minimum = 6
	maximum = 69
Network latency average = 11.4215
	minimum = 6
	maximum = 60
Slowest packet = 27
Flit latency average = 10.6662
	minimum = 6
	maximum = 60
Slowest flit = 27
Fragmentation average = 0
	minimum = 0
	maximum = 0
Injected packet rate average = 0.00112983
	minimum = 0.000930665 (at node 6)
	maximum = 0.00130832 (at node 41)
Accepted packet rate average = 0.00112983
	minimum = 0.000930665 (at node 6)
	maximum = 0.00130832 (at node 41)
Injected flit rate average = 0.00241511
	minimum = 0.00142556 (at node 23)
	maximum = 0.00365282 (at node 41)
Accepted flit rate average= 0.00241511
	minimum = 0.00188378 (at node 32)
	maximum = 0.00290325 (at node 19)
Injected packet length average = 2.13759
Accepted packet length average = 2.13759
Total in-flight flits = 0 (0 measured)
====== Overall Traffic Statistics ======
====== Traffic class 0 ======
Packet latency average = 13.3233 (1 samples)
	minimum = 6 (1 samples)
	maximum = 69 (1 samples)
Network latency average = 11.4215 (1 samples)
	minimum = 6 (1 samples)
	maximum = 60 (1 samples)
Flit latency average = 10.6662 (1 samples)
	minimum = 6 (1 samples)
	maximum = 60 (1 samples)
Fragmentation average = 0 (1 samples)
	minimum = 0 (1 samples)
	maximum = 0 (1 samples)
Injected packet rate average = 0.00112983 (1 samples)
	minimum = 0.000930665 (1 samples)
	maximum = 0.00130832 (1 samples)
Accepted packet rate average = 0.00112983 (1 samples)
	minimum = 0.000930665 (1 samples)
	maximum = 0.00130832 (1 samples)
Injected flit rate average = 0.00241511 (1 samples)
	minimum = 0.00142556 (1 samples)
	maximum = 0.00365282 (1 samples)
Accepted flit rate average = 0.00241511 (1 samples)
	minimum = 0.00188378 (1 samples)
	maximum = 0.00290325 (1 samples)
Injected packet size average = 2.13759 (1 samples)
Accepted packet size average = 2.13759 (1 samples)
Hops average = 1 (1 samples)
----------------------------END-of-Interconnect-DETAILS-------------------------


gpgpu_simulation_time = 0 days, 1 hrs, 49 min, 11 sec (6551 sec)
gpgpu_simulation_rate = 15838 (inst/sec)
gpgpu_simulation_rate = 339 (cycle/sec)
Ending simulation
========================================UVM statistics==============================
========================================TLB statistics(access)==============================
Shader0: Tlb_access: 3900 Tlb_hit: 636 Tlb_miss: 3264 Tlb_hit_rate: 0.163077
Shader1: Tlb_access: 4092 Tlb_hit: 646 Tlb_miss: 3446 Tlb_hit_rate: 0.157869
Shader2: Tlb_access: 4008 Tlb_hit: 622 Tlb_miss: 3386 Tlb_hit_rate: 0.155190
Shader3: Tlb_access: 3892 Tlb_hit: 640 Tlb_miss: 3252 Tlb_hit_rate: 0.164440
Shader4: Tlb_access: 4024 Tlb_hit: 536 Tlb_miss: 3488 Tlb_hit_rate: 0.133201
Shader5: Tlb_access: 4076 Tlb_hit: 610 Tlb_miss: 3466 Tlb_hit_rate: 0.149657
Shader6: Tlb_access: 3716 Tlb_hit: 612 Tlb_miss: 3104 Tlb_hit_rate: 0.164693
Shader7: Tlb_access: 4180 Tlb_hit: 704 Tlb_miss: 3476 Tlb_hit_rate: 0.168421
Shader8: Tlb_access: 3932 Tlb_hit: 688 Tlb_miss: 3244 Tlb_hit_rate: 0.174975
Shader9: Tlb_access: 4176 Tlb_hit: 686 Tlb_miss: 3490 Tlb_hit_rate: 0.164272
Shader10: Tlb_access: 4156 Tlb_hit: 808 Tlb_miss: 3348 Tlb_hit_rate: 0.194418
Shader11: Tlb_access: 4088 Tlb_hit: 714 Tlb_miss: 3374 Tlb_hit_rate: 0.174658
Shader12: Tlb_access: 3860 Tlb_hit: 536 Tlb_miss: 3324 Tlb_hit_rate: 0.138860
Shader13: Tlb_access: 3952 Tlb_hit: 522 Tlb_miss: 3430 Tlb_hit_rate: 0.132085
Shader14: Tlb_access: 4136 Tlb_hit: 606 Tlb_miss: 3530 Tlb_hit_rate: 0.146518
Shader15: Tlb_access: 4008 Tlb_hit: 698 Tlb_miss: 3310 Tlb_hit_rate: 0.174152
Shader16: Tlb_access: 3972 Tlb_hit: 490 Tlb_miss: 3482 Tlb_hit_rate: 0.123364
Shader17: Tlb_access: 4024 Tlb_hit: 596 Tlb_miss: 3428 Tlb_hit_rate: 0.148111
Shader18: Tlb_access: 3972 Tlb_hit: 640 Tlb_miss: 3332 Tlb_hit_rate: 0.161128
Shader19: Tlb_access: 4256 Tlb_hit: 664 Tlb_miss: 3592 Tlb_hit_rate: 0.156015
Shader20: Tlb_access: 3940 Tlb_hit: 572 Tlb_miss: 3368 Tlb_hit_rate: 0.145178
Shader21: Tlb_access: 4248 Tlb_hit: 466 Tlb_miss: 3782 Tlb_hit_rate: 0.109699
Shader22: Tlb_access: 3960 Tlb_hit: 730 Tlb_miss: 3230 Tlb_hit_rate: 0.184343
Shader23: Tlb_access: 3728 Tlb_hit: 466 Tlb_miss: 3262 Tlb_hit_rate: 0.125000
Shader24: Tlb_access: 4196 Tlb_hit: 520 Tlb_miss: 3676 Tlb_hit_rate: 0.123928
Shader25: Tlb_access: 4196 Tlb_hit: 616 Tlb_miss: 3580 Tlb_hit_rate: 0.146806
Shader26: Tlb_access: 4220 Tlb_hit: 684 Tlb_miss: 3536 Tlb_hit_rate: 0.162085
Shader27: Tlb_access: 3908 Tlb_hit: 652 Tlb_miss: 3256 Tlb_hit_rate: 0.166837
Tlb_tot_access: 112816 Tlb_tot_hit: 17360, Tlb_tot_miss: 95456, Tlb_tot_hit_rate: 0.153879
========================================TLB statistics(validate)==============================
Shader0: Tlb_validate: 740 Tlb_invalidate: 244 Tlb_evict: 0 Tlb_page_evict: 244
Shader1: Tlb_validate: 684 Tlb_invalidate: 220 Tlb_evict: 0 Tlb_page_evict: 220
Shader2: Tlb_validate: 716 Tlb_invalidate: 234 Tlb_evict: 0 Tlb_page_evict: 234
Shader3: Tlb_validate: 688 Tlb_invalidate: 222 Tlb_evict: 0 Tlb_page_evict: 222
Shader4: Tlb_validate: 726 Tlb_invalidate: 238 Tlb_evict: 0 Tlb_page_evict: 238
Shader5: Tlb_validate: 712 Tlb_invalidate: 232 Tlb_evict: 0 Tlb_page_evict: 232
Shader6: Tlb_validate: 712 Tlb_invalidate: 232 Tlb_evict: 0 Tlb_page_evict: 232
Shader7: Tlb_validate: 740 Tlb_invalidate: 244 Tlb_evict: 0 Tlb_page_evict: 244
Shader8: Tlb_validate: 712 Tlb_invalidate: 232 Tlb_evict: 0 Tlb_page_evict: 232
Shader9: Tlb_validate: 712 Tlb_invalidate: 232 Tlb_evict: 0 Tlb_page_evict: 232
Shader10: Tlb_validate: 660 Tlb_invalidate: 210 Tlb_evict: 0 Tlb_page_evict: 210
Shader11: Tlb_validate: 670 Tlb_invalidate: 214 Tlb_evict: 0 Tlb_page_evict: 214
Shader12: Tlb_validate: 684 Tlb_invalidate: 220 Tlb_evict: 0 Tlb_page_evict: 220
Shader13: Tlb_validate: 698 Tlb_invalidate: 226 Tlb_evict: 0 Tlb_page_evict: 226
Shader14: Tlb_validate: 634 Tlb_invalidate: 202 Tlb_evict: 0 Tlb_page_evict: 202
Shader15: Tlb_validate: 712 Tlb_invalidate: 232 Tlb_evict: 0 Tlb_page_evict: 232
Shader16: Tlb_validate: 670 Tlb_invalidate: 214 Tlb_evict: 0 Tlb_page_evict: 214
Shader17: Tlb_validate: 726 Tlb_invalidate: 238 Tlb_evict: 0 Tlb_page_evict: 238
Shader18: Tlb_validate: 726 Tlb_invalidate: 238 Tlb_evict: 0 Tlb_page_evict: 238
Shader19: Tlb_validate: 698 Tlb_invalidate: 226 Tlb_evict: 0 Tlb_page_evict: 226
Shader20: Tlb_validate: 670 Tlb_invalidate: 214 Tlb_evict: 0 Tlb_page_evict: 214
Shader21: Tlb_validate: 712 Tlb_invalidate: 232 Tlb_evict: 0 Tlb_page_evict: 232
Shader22: Tlb_validate: 726 Tlb_invalidate: 238 Tlb_evict: 0 Tlb_page_evict: 238
Shader23: Tlb_validate: 726 Tlb_invalidate: 238 Tlb_evict: 0 Tlb_page_evict: 238
Shader24: Tlb_validate: 662 Tlb_invalidate: 214 Tlb_evict: 0 Tlb_page_evict: 214
Shader25: Tlb_validate: 726 Tlb_invalidate: 238 Tlb_evict: 0 Tlb_page_evict: 238
Shader26: Tlb_validate: 684 Tlb_invalidate: 220 Tlb_evict: 0 Tlb_page_evict: 220
Shader27: Tlb_validate: 688 Tlb_invalidate: 222 Tlb_evict: 0 Tlb_page_evict: 222
Tlb_tot_valiate: 19614 Tlb_invalidate: 6366, Tlb_tot_evict: 0, Tlb_tot_evict page: 6366
========================================TLB statistics(threshing)==============================
Shader0: Total 0
Shader1: Total 0
Shader2: Total 0
Shader3: Total 0
Shader4: Total 0
Shader5: Total 0
Shader6: Total 0
Shader7: Total 0
Shader8: Total 0
Shader9: Total 0
Shader10: Total 0
Shader11: Total 0
Shader12: Total 0
Shader13: Total 0
Shader14: Total 0
Shader15: Total 0
Shader16: Total 0
Shader17: Total 0
Shader18: Total 0
Shader19: Total 0
Shader20: Total 0
Shader21: Total 0
Shader22: Total 0
Shader23: Total 0
Shader24: Total 0
Shader25: Total 0
Shader26: Total 0
Shader27: Total 0
Tlb_tot_thresh: 0
========================================Page fault statistics==============================
Shader0: Page_table_access:3264 Page_hit: 732 Page_miss: 2532 Page_hit_rate: 0.224265
Shader1: Page_table_access:3446 Page_hit: 760 Page_miss: 2686 Page_hit_rate: 0.220546
Shader2: Page_table_access:3386 Page_hit: 824 Page_miss: 2562 Page_hit_rate: 0.243355
Shader3: Page_table_access:3252 Page_hit: 848 Page_miss: 2404 Page_hit_rate: 0.260763
Shader4: Page_table_access:3488 Page_hit: 818 Page_miss: 2670 Page_hit_rate: 0.234518
Shader5: Page_table_access:3466 Page_hit: 752 Page_miss: 2714 Page_hit_rate: 0.216965
Shader6: Page_table_access:3104 Page_hit: 664 Page_miss: 2440 Page_hit_rate: 0.213918
Shader7: Page_table_access:3476 Page_hit: 734 Page_miss: 2742 Page_hit_rate: 0.211162
Shader8: Page_table_access:3244 Page_hit: 670 Page_miss: 2574 Page_hit_rate: 0.206535
Shader9: Page_table_access:3490 Page_hit: 732 Page_miss: 2758 Page_hit_rate: 0.209742
Shader10: Page_table_access:3348 Page_hit: 654 Page_miss: 2694 Page_hit_rate: 0.195340
Shader11: Page_table_access:3374 Page_hit: 776 Page_miss: 2598 Page_hit_rate: 0.229994
Shader12: Page_table_access:3324 Page_hit: 730 Page_miss: 2594 Page_hit_rate: 0.219615
Shader13: Page_table_access:3430 Page_hit: 724 Page_miss: 2706 Page_hit_rate: 0.211079
Shader14: Page_table_access:3530 Page_hit: 762 Page_miss: 2768 Page_hit_rate: 0.215864
Shader15: Page_table_access:3310 Page_hit: 760 Page_miss: 2550 Page_hit_rate: 0.229607
Shader16: Page_table_access:3482 Page_hit: 948 Page_miss: 2534 Page_hit_rate: 0.272257
Shader17: Page_table_access:3428 Page_hit: 730 Page_miss: 2698 Page_hit_rate: 0.212952
Shader18: Page_table_access:3332 Page_hit: 700 Page_miss: 2632 Page_hit_rate: 0.210084
Shader19: Page_table_access:3592 Page_hit: 944 Page_miss: 2648 Page_hit_rate: 0.262806
Shader20: Page_table_access:3368 Page_hit: 754 Page_miss: 2614 Page_hit_rate: 0.223872
Shader21: Page_table_access:3782 Page_hit: 932 Page_miss: 2850 Page_hit_rate: 0.246430
Shader22: Page_table_access:3230 Page_hit: 702 Page_miss: 2528 Page_hit_rate: 0.217337
Shader23: Page_table_access:3262 Page_hit: 728 Page_miss: 2534 Page_hit_rate: 0.223176
Shader24: Page_table_access:3676 Page_hit: 856 Page_miss: 2820 Page_hit_rate: 0.232862
Shader25: Page_table_access:3580 Page_hit: 904 Page_miss: 2676 Page_hit_rate: 0.252514
Shader26: Page_table_access:3536 Page_hit: 718 Page_miss: 2818 Page_hit_rate: 0.203054
Shader27: Page_table_access:3256 Page_hit: 830 Page_miss: 2426 Page_hit_rate: 0.254914
Page_talbe_tot_access: 95456 Page_tot_hit: 21686, Page_tot_miss 73770, Page_tot_hit_rate: 0.227183 Page_tot_fault: 541 Page_tot_pending: 73229
Total_memory_access_page_fault: 541, Average_latency: 1343030.250000
========================================Page threshing statistics==============================
Page_validate: 768 Page_evict_diry: 0 Page_evict_not_diry: 0
Page_tot_thresh: 0
========================================Memory access statistics==============================
========================================Prefetch statistics==============================
Tot_page_hit: 0, Tot_page_miss: 0, Tot_page_fault: 0
Avg_page_latency: 0.000000, Avg_prefetch_size: -nan, Avg_prefetch_latency: 0.000000
========================================Rdma statistics==============================
Rdma_read: 0
Rdma_migration_read 0
Rdma_migration_write 0
========================================PCI-e statistics==============================
Pcie_read_utilization: 0.136211
[0-25]: 1.000000, [26-50]: 0.000000, [51-75]: 0.000000, [76-100]: 0.000000
Pcie_write_utilization: 0.000000
[0-25]: -nan, [26-50]: -nan, [51-75]: -nan, [76-100]: -nan
F:   222150----T:  2226632 	 	 	 Kl: 1 	 Sm: 0 	 T: kernel_launch(1353.465210)
F:   223850----T:   226455 	 St: c000b000 Sz: 4096 	 Sm: 0 	 T: memcpy_h2d(1.758947)
F:   226455----T:   229060 	 St: c0067000 Sz: 4096 	 Sm: 0 	 T: memcpy_h2d(1.758947)
F:   229060----T:   231665 	 St: c0011000 Sz: 4096 	 Sm: 0 	 T: memcpy_h2d(1.758947)
F:   231665----T:   234270 	 St: c01c6000 Sz: 4096 	 Sm: 0 	 T: memcpy_h2d(1.758947)
F:   234270----T:   236875 	 St: c0013000 Sz: 4096 	 Sm: 0 	 T: memcpy_h2d(1.758947)
F:   236875----T:   239480 	 St: c0069000 Sz: 4096 	 Sm: 0 	 T: memcpy_h2d(1.758947)
F:   239480----T:   242085 	 St: c0001000 Sz: 4096 	 Sm: 0 	 T: memcpy_h2d(1.758947)
F:   242085----T:   244690 	 St: c0073000 Sz: 4096 	 Sm: 0 	 T: memcpy_h2d(1.758947)
F:   244690----T:   247295 	 St: c0003000 Sz: 4096 	 Sm: 0 	 T: memcpy_h2d(1.758947)
F:   247295----T:   249900 	 St: c0251000 Sz: 4096 	 Sm: 0 	 T: memcpy_h2d(1.758947)
F:   249900----T:   252505 	 St: c000d000 Sz: 4096 	 Sm: 0 	 T: memcpy_h2d(1.758947)
F:   252505----T:   255110 	 St: c01ff000 Sz: 4096 	 Sm: 0 	 T: memcpy_h2d(1.758947)
F:   255110----T:   257715 	 St: c0005000 Sz: 4096 	 Sm: 0 	 T: memcpy_h2d(1.758947)
F:   257715----T:   260320 	 St: c024a000 Sz: 4096 	 Sm: 0 	 T: memcpy_h2d(1.758947)
F:   260320----T:   262925 	 St: c0015000 Sz: 4096 	 Sm: 0 	 T: memcpy_h2d(1.758947)
[...]
F:  1653995----T:  1656600 	 St: c017d000 Sz: 4096 	 Sm: 0 	 T: memcpy_h2d(1.758947)
F:  1656600----T:  1659205 	 St: c0179000 Sz: 4096 	 Sm: 0 	 T: memcpy_h2d(1.758947)
F:  1659205----T:  1661810 	 St: c017e000 Sz: 4096 	 Sm: 0 	 T: memcpy_h2d(1.758947)
F:  1661810----T:  1664415 	 St: c0180000 Sz: 4096 	 Sm: 0 	 T: memcpy_h2d(1.758947)
F:  1664415----T:  1667020 	 St: c0181000 Sz: 4096 	 Sm: 0 	 T: memcpy_h2d(1.758947)
F:  1667020----T:  1669625 	 St: c0183000 Sz: 4096 	 Sm: 0 	 T: memcpy_h2d(1.758947)
F:  1669625----T:  1672230 	 St: c02bc000 Sz: 4096 	 Sm: 0 	 T: memcpy_h2d(1.758947)
F:  1672230----T:  1674835 	 St: c017f000 Sz: 4096 	 Sm: 0 	 T: memcpy_h2d(1.758947)
F:  1674835----T:  1677440 	 St: c0187000 Sz: 4096 	 Sm: 0 	 T: memcpy_h2d(1.758947)
F:  1677440----T:  1680045 	 St: c0188000 Sz: 4096 	 Sm: 0 	 T: memcpy_h2d(1.758947)
F:  1680045----T:  1682650 	 St: c0185000 Sz: 4096 	 Sm: 0 	 T: memcpy_h2d(1.758947)
F:  1682650----T:  1685255 	 St: c018a000 Sz: 4096 	 Sm: 0 	 T: memcpy_h2d(1.758947)
F:  1685255----T:  1687860 	 St: c018e000 Sz: 4096 	 Sm: 0 	 T: memcpy_h2d(1.758947)
F:  1687860----T:  1690465 	 St: c018c000 Sz: 4096 	 Sm: 0 	 T: memcpy_h2d(1.758947)
F:  1690465----T:  1693070 	 St: c018b000 Sz: 4096 	 Sm: 0 	 T: memcpy_h2d(1.758947)
F:  1693070----T:  1695675 	 St: c00d0000 Sz: 4096 	 Sm: 0 	 T: memcpy_h2d(1.758947)
F:  1695675----T:  1698280 	 St: c018d000 Sz: 4096 	 Sm: 0 	 T: memcpy_h2d(1.758947)
F:  1698280----T:  1700885 	 St: c018f000 Sz: 4096 	 Sm: 0 	 T: memcpy_h2d(1.758947)
F:  1700885----T:  1703490 	 St: c00da000 Sz: 4096 	 Sm: 0 	 T: memcpy_h2d(1.758947)
F:  1703490----T:  1706095 	 St: c0190000 Sz: 4096 	 Sm: 0 	 T: memcpy_h2d(1.758947)
F:  1706095----T:  1708700 	 St: c0192000 Sz: 4096 	 Sm: 0 	 T: memcpy_h2d(1.758947)
F:  1708700----T:  1711305 	 St: c0193000 Sz: 4096 	 Sm: 0 	 T: memcpy_h2d(1.758947)
F:  1711305----T:  1713910 	 St: c0195000 Sz: 4096 	 Sm: 0 	 T: memcpy_h2d(1.758947)
F:  1713910----T:  1716515 	 St: c0191000 Sz: 4096 	 Sm: 0 	 T: memcpy_h2d(1.758947)
F:  1716515----T:  1719120 	 St: c0097000 Sz: 4096 	 Sm: 0 	 T: memcpy_h2d(1.758947)
F:  1719120----T:  1721725 	 St: c0098000 Sz: 4096 	 Sm: 0 	 T: memcpy_h2d(1.758947)
F:  1721725----T:  1724330 	 St: c009a000 Sz: 4096 	 Sm: 0 	 T: memcpy_h2d(1.758947)
F:  1724330----T:  1726935 	 St: c01b3000 Sz: 4096 	 Sm: 0 	 T: memcpy_h2d(1.758947)
F:  1726935----T:  1729540 	 St: c009c000 Sz: 4096 	 Sm: 0 	 T: memcpy_h2d(1.758947)
F:  1729540----T:  1732145 	 St: c0299000 Sz: 4096 	 Sm: 0 	 T: memcpy_h2d(1.758947)
F:  1732145----T:  1734750 	 St: c009d000 Sz: 4096 	 Sm: 0 	 T: memcpy_h2d(1.758947)
F:  1734750----T:  1737355 	 St: c009f000 Sz: 4096 	 Sm: 0 	 T: memcpy_h2d(1.758947)
F:  1737355----T:  1739960 	 St: c00a1000 Sz: 4096 	 Sm: 0 	 T: memcpy_h2d(1.758947)
F:  1739960----T:  1742565 	 St: c00a0000 Sz: 4096 	 Sm: 0 	 T: memcpy_h2d(1.758947)
F:  1742565----T:  1745170 	 St: c00a2000 Sz: 4096 	 Sm: 0 	 T: memcpy_h2d(1.758947)
F:  1745170----T:  1747775 	 St: c00a5000 Sz: 4096 	 Sm: 0 	 T: memcpy_h2d(1.758947)
F:  1747775----T:  1750380 	 St: c00a7000 Sz: 4096 	 Sm: 0 	 T: memcpy_h2d(1.758947)
F:  1750380----T:  1752985 	 St: c00a4000 Sz: 4096 	 Sm: 0 	 T: memcpy_h2d(1.758947)
F:  1752985----T:  1755590 	 St: c00a6000 Sz: 4096 	 Sm: 0 	 T: memcpy_h2d(1.758947)
F:  1755590----T:  1758195 	 St: c02a3000 Sz: 4096 	 Sm: 0 	 T: memcpy_h2d(1.758947)
F:  1758195----T:  1760800 	 St: c02a8000 Sz: 4096 	 Sm: 0 	 T: memcpy_h2d(1.758947)
F:  1760800----T:  1763405 	 St: c00ee000 Sz: 4096 	 Sm: 0 	 T: memcpy_h2d(1.758947)
F:  1763405----T:  1766010 	 St: c00a9000 Sz: 4096 	 Sm: 0 	 T: memcpy_h2d(1.758947)
F:  1766010----T:  1768615 	 St: c00ab000 Sz: 4096 	 Sm: 0 	 T: memcpy_h2d(1.758947)
F:  1768615----T:  1771220 	 St: c00ad000 Sz: 4096 	 Sm: 0 	 T: memcpy_h2d(1.758947)
F:  1771220----T:  1773825 	 St: c00ae000 Sz: 4096 	 Sm: 0 	 T: memcpy_h2d(1.758947)
F:  1773825----T:  1776430 	 St: c02aa000 Sz: 4096 	 Sm: 0 	 T: memcpy_h2d(1.758947)
F:  1776430----T:  1779035 	 St: c00b0000 Sz: 4096 	 Sm: 0 	 T: memcpy_h2d(1.758947)
F:  1779035----T:  1781640 	 St: c01cf000 Sz: 4096 	 Sm: 0 	 T: memcpy_h2d(1.758947)
F:  1781640----T:  1784245 	 St: c00b2000 Sz: 4096 	 Sm: 0 	 T: memcpy_h2d(1.758947)
F:  1784245----T:  1786850 	 St: c00b4000 Sz: 4096 	 Sm: 0 	 T: memcpy_h2d(1.758947)
F:  1786850----T:  1789455 	 St: c02b1000 Sz: 4096 	 Sm: 0 	 T: memcpy_h2d(1.758947)
F:  1789455----T:  1792060 	 St: c02b3000 Sz: 4096 	 Sm: 0 	 T: memcpy_h2d(1.758947)
F:  1792060----T:  1794665 	 St: c01e2000 Sz: 4096 	 Sm: 0 	 T: memcpy_h2d(1.758947)
F:  1794665----T:  1797270 	 St: c029c000 Sz: 4096 	 Sm: 0 	 T: memcpy_h2d(1.758947)
F:  1797270----T:  1799875 	 St: c029d000 Sz: 4096 	 Sm: 0 	 T: memcpy_h2d(1.758947)
F:  1799875----T:  1802480 	 St: c029f000 Sz: 4096 	 Sm: 0 	 T: memcpy_h2d(1.758947)
F:  1802480----T:  1805085 	 St: c02a1000 Sz: 4096 	 Sm: 0 	 T: memcpy_h2d(1.758947)
F:  1805085----T:  1807690 	 St: c02a5000 Sz: 4096 	 Sm: 0 	 T: memcpy_h2d(1.758947)
F:  1807690----T:  1810295 	 St: c01d2000 Sz: 4096 	 Sm: 0 	 T: memcpy_h2d(1.758947)
F:  1810295----T:  1812900 	 St: c02a7000 Sz: 4096 	 Sm: 0 	 T: memcpy_h2d(1.758947)
F:  1812900----T:  1815505 	 St: c01b2000 Sz: 4096 	 Sm: 0 	 T: memcpy_h2d(1.758947)
F:  1815505----T:  1818110 	 St: c02a6000 Sz: 4096 	 Sm: 0 	 T: memcpy_h2d(1.758947)
F:  1818110----T:  1820715 	 St: c02a9000 Sz: 4096 	 Sm: 0 	 T: memcpy_h2d(1.758947)
F:  1820715----T:  1823320 	 St: c02ae000 Sz: 4096 	 Sm: 0 	 T: memcpy_h2d(1.758947)
F:  1823320----T:  1825925 	 St: c02fa000 Sz: 4096 	 Sm: 0 	 T: memcpy_h2d(1.758947)
F:  1825925----T:  1828530 	 St: c02b0000 Sz: 4096 	 Sm: 0 	 T: memcpy_h2d(1.758947)
F:  1828530----T:  1831135 	 St: c0196000 Sz: 4096 	 Sm: 0 	 T: memcpy_h2d(1.758947)
F:  1831135----T:  1833740 	 St: c00d8000 Sz: 4096 	 Sm: 0 	 T: memcpy_h2d(1.758947)
F:  1833740----T:  1836345 	 St: c0198000 Sz: 4096 	 Sm: 0 	 T: memcpy_h2d(1.758947)
F:  1836345----T:  1838950 	 St: c0199000 Sz: 4096 	 Sm: 0 	 T: memcpy_h2d(1.758947)
F:  1838950----T:  1841555 	 St: c019a000 Sz: 4096 	 Sm: 0 	 T: memcpy_h2d(1.758947)
F:  1841555----T:  1844160 	 St: c019b000 Sz: 4096 	 Sm: 0 	 T: memcpy_h2d(1.758947)
F:  1844160----T:  1846765 	 St: c0197000 Sz: 4096 	 Sm: 0 	 T: memcpy_h2d(1.758947)
F:  1846765----T:  1849370 	 St: c019c000 Sz: 4096 	 Sm: 0 	 T: memcpy_h2d(1.758947)
F:  1849370----T:  1851975 	 St: c019e000 Sz: 4096 	 Sm: 0 	 T: memcpy_h2d(1.758947)
F:  1851975----T:  1854580 	 St: c01a0000 Sz: 4096 	 Sm: 0 	 T: memcpy_h2d(1.758947)
F:  1854580----T:  1857185 	 St: c019d000 Sz: 4096 	 Sm: 0 	 T: memcpy_h2d(1.758947)
F:  1857185----T:  1859790 	 St: c01a2000 Sz: 4096 	 Sm: 0 	 T: memcpy_h2d(1.758947)
F:  1859790----T:  1862395 	 St: c01a4000 Sz: 4096 	 Sm: 0 	 T: memcpy_h2d(1.758947)
F:  1862395----T:  1865000 	 St: c01a5000 Sz: 4096 	 Sm: 0 	 T: memcpy_h2d(1.758947)
F:  1865000----T:  1867605 	 St: c01a6000 Sz: 4096 	 Sm: 0 	 T: memcpy_h2d(1.758947)
F:  1867605----T:  1870210 	 St: c01a7000 Sz: 4096 	 Sm: 0 	 T: memcpy_h2d(1.758947)
F:  1870210----T:  1872815 	 St: c01aa000 Sz: 4096 	 Sm: 0 	 T: memcpy_h2d(1.758947)
F:  1872815----T:  1875420 	 St: c01ad000 Sz: 4096 	 Sm: 0 	 T: memcpy_h2d(1.758947)
F:  1875420----T:  1878025 	 St: c01ae000 Sz: 4096 	 Sm: 0 	 T: memcpy_h2d(1.758947)
F:  1878025----T:  1880630 	 St: c01b1000 Sz: 4096 	 Sm: 0 	 T: memcpy_h2d(1.758947)
F:  1880630----T:  1883235 	 St: c01af000 Sz: 4096 	 Sm: 0 	 T: memcpy_h2d(1.758947)
F:  1883235----T:  1885840 	 St: c00b9000 Sz: 4096 	 Sm: 0 	 T: memcpy_h2d(1.758947)
F:  1885840----T:  1888445 	 St: c00b6000 Sz: 4096 	 Sm: 0 	 T: memcpy_h2d(1.758947)
F:  1888445----T:  1891050 	 St: c00de000 Sz: 4096 	 Sm: 0 	 T: memcpy_h2d(1.758947)
F:  1891050----T:  1893655 	 St: c00b8000 Sz: 4096 	 Sm: 0 	 T: memcpy_h2d(1.758947)
F:  1893655----T:  1896260 	 St: c00ba000 Sz: 4096 	 Sm: 0 	 T: memcpy_h2d(1.758947)
F:  1896260----T:  1898865 	 St: c02b5000 Sz: 4096 	 Sm: 0 	 T: memcpy_h2d(1.758947)
F:  1898865----T:  1901470 	 St: c02b7000 Sz: 4096 	 Sm: 0 	 T: memcpy_h2d(1.758947)
F:  1901470----T:  1904075 	 St: c00bb000 Sz: 4096 	 Sm: 0 	 T: memcpy_h2d(1.758947)
F:  1904075----T:  1906680 	 St: c00bd000 Sz: 4096 	 Sm: 0 	 T: memcpy_h2d(1.758947)
F:  1906680----T:  1909285 	 St: c00bf000 Sz: 4096 	 Sm: 0 	 T: memcpy_h2d(1.758947)
F:  1909285----T:  1911890 	 St: c02d3000 Sz: 4096 	 Sm: 0 	 T: memcpy_h2d(1.758947)
F:  1911890----T:  1914495 	 St: c00be000 Sz: 4096 	 Sm: 0 	 T: memcpy_h2d(1.758947)
F:  1914495----T:  1917100 	 St: c00c0000 Sz: 4096 	 Sm: 0 	 T: memcpy_h2d(1.758947)
F:  1917100----T:  1919705 	 St: c00c1000 Sz: 4096 	 Sm: 0 	 T: memcpy_h2d(1.758947)
F:  1919705----T:  1922310 	 St: c00c3000 Sz: 4096 	 Sm: 0 	 T: memcpy_h2d(1.758947)
F:  1922310----T:  1924915 	 St: c00c5000 Sz: 4096 	 Sm: 0 	 T: memcpy_h2d(1.758947)
F:  1924915----T:  1927520 	 St: c00c2000 Sz: 4096 	 Sm: 0 	 T: memcpy_h2d(1.758947)
F:  1927520----T:  1930125 	 St: c00c6000 Sz: 4096 	 Sm: 0 	 T: memcpy_h2d(1.758947)
F:  1930125----T:  1932730 	 St: c02c4000 Sz: 4096 	 Sm: 0 	 T: memcpy_h2d(1.758947)
F:  1932730----T:  1935335 	 St: c00c7000 Sz: 4096 	 Sm: 0 	 T: memcpy_h2d(1.758947)
F:  1935335----T:  1937940 	 St: c02e4000 Sz: 4096 	 Sm: 0 	 T: memcpy_h2d(1.758947)
F:  1937940----T:  1940545 	 St: c00c9000 Sz: 4096 	 Sm: 0 	 T: memcpy_h2d(1.758947)
F:  1940545----T:  1943150 	 St: c00c8000 Sz: 4096 	 Sm: 0 	 T: memcpy_h2d(1.758947)
F:  1943150----T:  1945755 	 St: c00cc000 Sz: 4096 	 Sm: 0 	 T: memcpy_h2d(1.758947)
F:  1945755----T:  1948360 	 St: c02cb000 Sz: 4096 	 Sm: 0 	 T: memcpy_h2d(1.758947)
F:  1948360----T:  1950965 	 St: c02ca000 Sz: 4096 	 Sm: 0 	 T: memcpy_h2d(1.758947)
F:  1950965----T:  1953570 	 St: c00cf000 Sz: 4096 	 Sm: 0 	 T: memcpy_h2d(1.758947)
F:  1953570----T:  1956175 	 St: c00ce000 Sz: 4096 	 Sm: 0 	 T: memcpy_h2d(1.758947)
F:  1956175----T:  1958780 	 St: c00d2000 Sz: 4096 	 Sm: 0 	 T: memcpy_h2d(1.758947)
F:  1958780----T:  1961385 	 St: c02c0000 Sz: 4096 	 Sm: 0 	 T: memcpy_h2d(1.758947)
F:  1961385----T:  1963990 	 St: c02cd000 Sz: 4096 	 Sm: 0 	 T: memcpy_h2d(1.758947)
F:  1963990----T:  1966595 	 St: c02d1000 Sz: 4096 	 Sm: 0 	 T: memcpy_h2d(1.758947)
F:  1966595----T:  1969200 	 St: c02d0000 Sz: 4096 	 Sm: 0 	 T: memcpy_h2d(1.758947)
F:  1969200----T:  1971805 	 St: c02b9000 Sz: 4096 	 Sm: 0 	 T: memcpy_h2d(1.758947)
F:  1971805----T:  1974410 	 St: c02fc000 Sz: 4096 	 Sm: 0 	 T: memcpy_h2d(1.758947)
F:  1974410----T:  1977015 	 St: c02b6000 Sz: 4096 	 Sm: 0 	 T: memcpy_h2d(1.758947)
F:  1977015----T:  1979620 	 St: c02b8000 Sz: 4096 	 Sm: 0 	 T: memcpy_h2d(1.758947)
F:  1979620----T:  1982225 	 St: c02bb000 Sz: 4096 	 Sm: 0 	 T: memcpy_h2d(1.758947)
F:  1982225----T:  1984830 	 St: c02bf000 Sz: 4096 	 Sm: 0 	 T: memcpy_h2d(1.758947)
F:  1984830----T:  1987435 	 St: c02c1000 Sz: 4096 	 Sm: 0 	 T: memcpy_h2d(1.758947)
F:  1987435----T:  1990040 	 St: c02c2000 Sz: 4096 	 Sm: 0 	 T: memcpy_h2d(1.758947)
F:  1990040----T:  1992645 	 St: c02c6000 Sz: 4096 	 Sm: 0 	 T: memcpy_h2d(1.758947)
F:  1992645----T:  1995250 	 St: c02c7000 Sz: 4096 	 Sm: 0 	 T: memcpy_h2d(1.758947)
F:  1995250----T:  1997855 	 St: c02c8000 Sz: 4096 	 Sm: 0 	 T: memcpy_h2d(1.758947)
F:  1997855----T:  2000460 	 St: c01bc000 Sz: 4096 	 Sm: 0 	 T: memcpy_h2d(1.758947)
F:  2000460----T:  2003065 	 St: c02cc000 Sz: 4096 	 Sm: 0 	 T: memcpy_h2d(1.758947)
F:  2003065----T:  2005670 	 St: c02cf000 Sz: 4096 	 Sm: 0 	 T: memcpy_h2d(1.758947)
F:  2005670----T:  2008275 	 St: c02ce000 Sz: 4096 	 Sm: 0 	 T: memcpy_h2d(1.758947)
F:  2008275----T:  2010880 	 St: c02d2000 Sz: 4096 	 Sm: 0 	 T: memcpy_h2d(1.758947)
F:  2010880----T:  2013485 	 St: c01b4000 Sz: 4096 	 Sm: 0 	 T: memcpy_h2d(1.758947)
F:  2013485----T:  2016090 	 St: c01b6000 Sz: 4096 	 Sm: 0 	 T: memcpy_h2d(1.758947)
F:  2016090----T:  2018695 	 St: c01b8000 Sz: 4096 	 Sm: 0 	 T: memcpy_h2d(1.758947)
F:  2018695----T:  2021300 	 St: c01ba000 Sz: 4096 	 Sm: 0 	 T: memcpy_h2d(1.758947)
F:  2021300----T:  2023905 	 St: c01bd000 Sz: 4096 	 Sm: 0 	 T: memcpy_h2d(1.758947)
F:  2023905----T:  2026510 	 St: c01bf000 Sz: 4096 	 Sm: 0 	 T: memcpy_h2d(1.758947)
F:  2026510----T:  2029115 	 St: c01c0000 Sz: 4096 	 Sm: 0 	 T: memcpy_h2d(1.758947)
F:  2029115----T:  2031720 	 St: c01c1000 Sz: 4096 	 Sm: 0 	 T: memcpy_h2d(1.758947)
F:  2031720----T:  2034325 	 St: c01c3000 Sz: 4096 	 Sm: 0 	 T: memcpy_h2d(1.758947)
F:  2034325----T:  2036930 	 St: c01c8000 Sz: 4096 	 Sm: 0 	 T: memcpy_h2d(1.758947)
F:  2036930----T:  2039535 	 St: c01c9000 Sz: 4096 	 Sm: 0 	 T: memcpy_h2d(1.758947)
F:  2039535----T:  2042140 	 St: c01cb000 Sz: 4096 	 Sm: 0 	 T: memcpy_h2d(1.758947)
F:  2042140----T:  2044745 	 St: c01c7000 Sz: 4096 	 Sm: 0 	 T: memcpy_h2d(1.758947)
F:  2044745----T:  2047350 	 St: c01cc000 Sz: 4096 	 Sm: 0 	 T: memcpy_h2d(1.758947)
F:  2047350----T:  2049955 	 St: c01ce000 Sz: 4096 	 Sm: 0 	 T: memcpy_h2d(1.758947)
F:  2049955----T:  2052560 	 St: c01d1000 Sz: 4096 	 Sm: 0 	 T: memcpy_h2d(1.758947)
F:  2052560----T:  2055165 	 St: c00ef000 Sz: 4096 	 Sm: 0 	 T: memcpy_h2d(1.758947)
F:  2055165----T:  2057770 	 St: c00d3000 Sz: 4096 	 Sm: 0 	 T: memcpy_h2d(1.758947)
F:  2057770----T:  2060375 	 St: c00d6000 Sz: 4096 	 Sm: 0 	 T: memcpy_h2d(1.758947)
F:  2060375----T:  2062980 	 St: c02d5000 Sz: 4096 	 Sm: 0 	 T: memcpy_h2d(1.758947)
F:  2062980----T:  2065585 	 St: c02d7000 Sz: 4096 	 Sm: 0 	 T: memcpy_h2d(1.758947)
F:  2065585----T:  2068190 	 St: c00db000 Sz: 4096 	 Sm: 0 	 T: memcpy_h2d(1.758947)
F:  2068190----T:  2070795 	 St: c00dd000 Sz: 4096 	 Sm: 0 	 T: memcpy_h2d(1.758947)
F:  2070795----T:  2073400 	 St: c02d9000 Sz: 4096 	 Sm: 0 	 T: memcpy_h2d(1.758947)
F:  2073400----T:  2076005 	 St: c02da000 Sz: 4096 	 Sm: 0 	 T: memcpy_h2d(1.758947)
F:  2076005----T:  2078610 	 St: c02dc000 Sz: 4096 	 Sm: 0 	 T: memcpy_h2d(1.758947)
F:  2078610----T:  2081215 	 St: c00df000 Sz: 4096 	 Sm: 0 	 T: memcpy_h2d(1.758947)
F:  2081215----T:  2083820 	 St: c00e1000 Sz: 4096 	 Sm: 0 	 T: memcpy_h2d(1.758947)
F:  2083820----T:  2086425 	 St: c00e0000 Sz: 4096 	 Sm: 0 	 T: memcpy_h2d(1.758947)
F:  2086425----T:  2089030 	 St: c00e4000 Sz: 4096 	 Sm: 0 	 T: memcpy_h2d(1.758947)
F:  2089030----T:  2091635 	 St: c02e2000 Sz: 4096 	 Sm: 0 	 T: memcpy_h2d(1.758947)
F:  2091635----T:  2094240 	 St: c00ed000 Sz: 4096 	 Sm: 0 	 T: memcpy_h2d(1.758947)
F:  2094240----T:  2096845 	 St: c00ea000 Sz: 4096 	 Sm: 0 	 T: memcpy_h2d(1.758947)
F:  2096845----T:  2099450 	 St: c02e5000 Sz: 4096 	 Sm: 0 	 T: memcpy_h2d(1.758947)
F:  2099450----T:  2102055 	 St: c02e7000 Sz: 4096 	 Sm: 0 	 T: memcpy_h2d(1.758947)
F:  2102055----T:  2104660 	 St: c02e6000 Sz: 4096 	 Sm: 0 	 T: memcpy_h2d(1.758947)
F:  2104660----T:  2107265 	 St: c02e8000 Sz: 4096 	 Sm: 0 	 T: memcpy_h2d(1.758947)
F:  2107265----T:  2109870 	 St: c00eb000 Sz: 4096 	 Sm: 0 	 T: memcpy_h2d(1.758947)
F:  2109870----T:  2112475 	 St: c00f0000 Sz: 4096 	 Sm: 0 	 T: memcpy_h2d(1.758947)
F:  2112475----T:  2115080 	 St: c02ee000 Sz: 4096 	 Sm: 0 	 T: memcpy_h2d(1.758947)
F:  2115080----T:  2117685 	 St: c02d6000 Sz: 4096 	 Sm: 0 	 T: memcpy_h2d(1.758947)
F:  2117685----T:  2120290 	 St: c02db000 Sz: 4096 	 Sm: 0 	 T: memcpy_h2d(1.758947)
F:  2120290----T:  2122895 	 St: c02dd000 Sz: 4096 	 Sm: 0 	 T: memcpy_h2d(1.758947)
F:  2122895----T:  2125500 	 St: c02df000 Sz: 4096 	 Sm: 0 	 T: memcpy_h2d(1.758947)
F:  2125500----T:  2128105 	 St: c02e0000 Sz: 4096 	 Sm: 0 	 T: memcpy_h2d(1.758947)
F:  2128105----T:  2130710 	 St: c02ed000 Sz: 4096 	 Sm: 0 	 T: memcpy_h2d(1.758947)
F:  2130710----T:  2133315 	 St: c01e6000 Sz: 4096 	 Sm: 0 	 T: memcpy_h2d(1.758947)
F:  2133315----T:  2135920 	 St: c01e7000 Sz: 4096 	 Sm: 0 	 T: memcpy_h2d(1.758947)
F:  2135920----T:  2138525 	 St: c01e9000 Sz: 4096 	 Sm: 0 	 T: memcpy_h2d(1.758947)
F:  2138525----T:  2141130 	 St: c02eb000 Sz: 4096 	 Sm: 0 	 T: memcpy_h2d(1.758947)
F:  2141130----T:  2143735 	 St: c01f4000 Sz: 4096 	 Sm: 0 	 T: memcpy_h2d(1.758947)
F:  2143735----T:  2146340 	 St: c01d5000 Sz: 4096 	 Sm: 0 	 T: memcpy_h2d(1.758947)
F:  2146340----T:  2148945 	 St: c01d6000 Sz: 4096 	 Sm: 0 	 T: memcpy_h2d(1.758947)
F:  2148945----T:  2151550 	 St: c01d7000 Sz: 4096 	 Sm: 0 	 T: memcpy_h2d(1.758947)
F:  2151550----T:  2154155 	 St: c01d8000 Sz: 4096 	 Sm: 0 	 T: memcpy_h2d(1.758947)
F:  2154155----T:  2156760 	 St: c01da000 Sz: 4096 	 Sm: 0 	 T: memcpy_h2d(1.758947)
F:  2156760----T:  2159365 	 St: c01dd000 Sz: 4096 	 Sm: 0 	 T: memcpy_h2d(1.758947)
F:  2159365----T:  2161970 	 St: c01de000 Sz: 4096 	 Sm: 0 	 T: memcpy_h2d(1.758947)
F:  2161970----T:  2164575 	 St: c01df000 Sz: 4096 	 Sm: 0 	 T: memcpy_h2d(1.758947)
F:  2164575----T:  2167180 	 St: c00f5000 Sz: 4096 	 Sm: 0 	 T: memcpy_h2d(1.758947)
F:  2167180----T:  2169785 	 St: c02f3000 Sz: 4096 	 Sm: 0 	 T: memcpy_h2d(1.758947)
F:  2169785----T:  2172390 	 St: c02f4000 Sz: 4096 	 Sm: 0 	 T: memcpy_h2d(1.758947)
F:  2172390----T:  2174995 	 St: c02f6000 Sz: 4096 	 Sm: 0 	 T: memcpy_h2d(1.758947)
F:  2174995----T:  2177600 	 St: c01ea000 Sz: 4096 	 Sm: 0 	 T: memcpy_h2d(1.758947)
F:  2177600----T:  2180205 	 St: c01ed000 Sz: 4096 	 Sm: 0 	 T: memcpy_h2d(1.758947)
F:  2180205----T:  2182810 	 St: c01ee000 Sz: 4096 	 Sm: 0 	 T: memcpy_h2d(1.758947)
F:  2182810----T:  2185415 	 St: c01ef000 Sz: 4096 	 Sm: 0 	 T: memcpy_h2d(1.758947)
F:  2185415----T:  2188020 	 St: c00f7000 Sz: 4096 	 Sm: 0 	 T: memcpy_h2d(1.758947)
F:  2188020----T:  2190625 	 St: c01f2000 Sz: 4096 	 Sm: 0 	 T: memcpy_h2d(1.758947)
F:  2190625----T:  2193230 	 St: c00f9000 Sz: 4096 	 Sm: 0 	 T: memcpy_h2d(1.758947)
F:  2193230----T:  2195835 	 St: c00ff000 Sz: 4096 	 Sm: 0 	 T: memcpy_h2d(1.758947)
F:  2195835----T:  2198440 	 St: c00fe000 Sz: 4096 	 Sm: 0 	 T: memcpy_h2d(1.758947)
F:  2198440----T:  2201045 	 St: c02fd000 Sz: 4096 	 Sm: 0 	 T: memcpy_h2d(1.758947)
F:  2201045----T:  2203650 	 St: c01f0000 Sz: 4096 	 Sm: 0 	 T: memcpy_h2d(1.758947)
F:  2203650----T:  2206255 	 St: c01f3000 Sz: 4096 	 Sm: 0 	 T: memcpy_h2d(1.758947)
F:  2206255----T:  2208860 	 St: c01f5000 Sz: 4096 	 Sm: 0 	 T: memcpy_h2d(1.758947)
F:  2208860----T:  2211465 	 St: c01f1000 Sz: 4096 	 Sm: 0 	 T: memcpy_h2d(1.758947)
F:  2211465----T:  2214070 	 St: c01f9000 Sz: 4096 	 Sm: 0 	 T: memcpy_h2d(1.758947)
F:  2214070----T:  2216675 	 St: c02ff000 Sz: 4096 	 Sm: 0 	 T: memcpy_h2d(1.758947)
F:  2216675----T:  2219280 	 St: c02fe000 Sz: 4096 	 Sm: 0 	 T: memcpy_h2d(1.758947)
F:  2221117----T:  2223722 	 St: c01fc000 Sz: 4096 	 Sm: 0 	 T: memcpy_h2d(1.758947)
F:  2223722----T:  2226327 	 St: c01fd000 Sz: 4096 	 Sm: 0 	 T: memcpy_h2d(1.758947)
F:  2226632----T:  2229237 	 St: 0 Sz: 4096 	 Sm: 0 	 T: device_sync(1.758947)
F:  2226632----T:  2234872 	 St: 0 Sz: 61440 	 Sm: 0 	 T: device_sync(5.563808)
F:  2237477----T:  2240082 	 St: 0 Sz: 4096 	 Sm: 0 	 T: device_sync(1.758947)
F:  2237477----T:  2245717 	 St: 0 Sz: 61440 	 Sm: 0 	 T: device_sync(5.563808)
F:  2248322----T:  2250927 	 St: 0 Sz: 4096 	 Sm: 0 	 T: device_sync(1.758947)
F:  2248322----T:  2264017 	 St: 0 Sz: 126976 	 Sm: 0 	 T: device_sync(10.597569)
F:  2266622----T:  2269227 	 St: 0 Sz: 4096 	 Sm: 0 	 T: device_sync(1.758947)
F:  2266622----T:  2297345 	 St: 0 Sz: 258048 	 Sm: 0 	 T: device_sync(20.744766)
F:  2299950----T:  2302555 	 St: 0 Sz: 4096 	 Sm: 0 	 T: device_sync(1.758947)
F:  2299950----T:  2360786 	 St: 0 Sz: 520192 	 Sm: 0 	 T: device_sync(41.077652)
Tot_prefetch_time: 0(cycle), 0.000000(us)
Tot_kernel_exec_time: 2004482(cycle), 1353.465210(us)
Tot_kernel_exec_time_and_fault_time: 38059427(cycle), 25698.466797(us)
Tot_memcpy_h2d_time: 2000640(cycle), 1350.871094(us)
Tot_memcpy_d2h_time: 0(cycle), 0.000000(us)
Tot_memcpy_time: 2000640(cycle), 1350.871094(us)
Tot_devicesync_time: 136759(cycle), 92.342339(us)
Tot_writeback_time: 0(cycle), 0.000000(us)
Tot_rdma_time: 0(cycle), 0.000000(us)
Tot_memcpy_d2h_sync_wb_time: 136759(cycle), 92.342339(us)
GPGPU-Sim: *** exit detected ***
