

        *** GPGPU-Sim Simulator Version 3.2.2  [build gpgpu-sim_git-commit-3860d9b353b66e89e1a9ca14f6569fffcf247a15_modified_0] ***


GPGPU-Sim PTX: simulation mode 0 (can change with PTX_SIM_MODE_FUNC environment variable:
               1=functional simulation only, 0=detailed performance simulator)
GPGPU-Sim: Configuration options:

-network_mode                           1 # Interconnection network mode
-inter_config_file   config_fermi_islip.icnt # Interconnection network config file
-gpgpu_ptx_use_cuobjdump                    1 # Use cuobjdump to extract ptx and sass from binaries
-gpgpu_experimental_lib_support                    0 # Try to extract code from cuda libraries [Broken because of unknown cudaGetExportTable]
-gpgpu_ptx_convert_to_ptxplus                    0 # Convert SASS (native ISA) to ptxplus and run ptxplus
-gpgpu_ptx_force_max_capability                   20 # Force maximum compute capability
-gpgpu_ptx_inst_debug_to_file                    0 # Dump executed instructions' debug information to file
-gpgpu_ptx_inst_debug_file       inst_debug.txt # Executed instructions' debug output file
-gpgpu_ptx_inst_debug_thread_uid                    1 # Thread UID for executed instructions' debug output
-gpgpu_simd_model                       1 # 1 = post-dominator
-gpgpu_shader_core_pipeline              2048:32 # shader core pipeline config, i.e., {<nthread>:<warpsize>}
-gpgpu_tex_cache:l1  16:128:24,L:R:m:N:L,F:128:4,128:2 # per-shader L1 texture cache  (READ-ONLY) config  {<nsets>:<bsize>:<assoc>,<rep>:<wr>:<alloc>:<wr_alloc>,<mshr>:<N>:<merge>,<mq>:<rf>}
-gpgpu_const_cache:l1 128:64:2,L:R:f:N:L,A:2:64,4 # per-shader L1 constant memory cache  (READ-ONLY) config  {<nsets>:<bsize>:<assoc>,<rep>:<wr>:<alloc>:<wr_alloc>,<mshr>:<N>:<merge>,<mq>} 
-gpgpu_cache:il1     8:128:4,L:R:f:N:L,A:2:48,4 # shader L1 instruction cache config  {<nsets>:<bsize>:<assoc>,<rep>:<wr>:<alloc>:<wr_alloc>,<mshr>:<N>:<merge>,<mq>} 
-gpgpu_cache:dl1     64:128:6,L:L:m:N:H,A:128:8,8 # per-shader L1 data cache config  {<nsets>:<bsize>:<assoc>,<rep>:<wr>:<alloc>:<wr_alloc>,<mshr>:<N>:<merge>,<mq> | none}
-gpgpu_cache:dl1PrefL1                 none # per-shader L1 data cache config  {<nsets>:<bsize>:<assoc>,<rep>:<wr>:<alloc>:<wr_alloc>,<mshr>:<N>:<merge>,<mq> | none}
-gpgpu_cache:dl1PrefShared                 none # per-shader L1 data cache config  {<nsets>:<bsize>:<assoc>,<rep>:<wr>:<alloc>:<wr_alloc>,<mshr>:<N>:<merge>,<mq> | none}
-gmem_skip_L1D                          1 # global memory access skip L1D cache (implements -Xptxas -dlcm=cg, default=no skip)
-gpgpu_perfect_mem                      0 # enable perfect memory mode (no cache miss)
-n_regfile_gating_group                    4 # group of lanes that should be read/written together)
-gpgpu_clock_gated_reg_file                    0 # enable clock gated reg file for power calculations
-gpgpu_clock_gated_lanes                    0 # enable clock gated lanes for power calculations
-gpgpu_shader_registers                65536 # Number of registers per shader core. Limits number of concurrent CTAs. (default 8192)
-gpgpu_shader_cta                      32 # Maximum number of concurrent CTAs in shader (default 8)
-gpgpu_num_cta_barriers                   16 # Maximum number of named barriers per CTA (default 16)
-gpgpu_n_clusters                      28 # number of processing clusters
-gpgpu_n_cores_per_cluster                    1 # number of simd cores per cluster
-gpgpu_n_cluster_ejection_buffer_size                    8 # number of packets in ejection buffer
-gpgpu_n_ldst_response_buffer_size                    2 # number of response packets in ld/st unit ejection buffer
-gpgpu_shmem_size                   16384 # Size of shared memory per shader core (default 16kB)
-gpgpu_shmem_size                   98304 # Size of shared memory per shader core (default 16kB)
-gpgpu_shmem_size_PrefL1                16384 # Size of shared memory per shader core (default 16kB)
-gpgpu_shmem_size_PrefShared                16384 # Size of shared memory per shader core (default 16kB)
-gpgpu_shmem_num_banks                   32 # Number of banks in the shared memory in each shader core (default 16)
-gpgpu_shmem_limited_broadcast                    0 # Limit shared memory to do one broadcast per cycle (default on)
-gpgpu_shmem_warp_parts                    1 # Number of portions a warp is divided into for shared memory bank conflict check 
-gpgpu_warpdistro_shader                   -1 # Specify which shader core to collect the warp size distribution from
-gpgpu_warp_issue_shader                    0 # Specify which shader core to collect the warp issue distribution from
-gpgpu_local_mem_map                    1 # Mapping from local memory space address to simulated GPU physical address space (default = enabled)
-gpgpu_num_reg_banks                   32 # Number of register banks (default = 8)
-gpgpu_reg_bank_use_warp_id                    0 # Use warp ID in mapping registers to banks (default = off)
-gpgpu_operand_collector_num_units_sp                   20 # number of collector units (default = 4)
-gpgpu_operand_collector_num_units_sfu                    4 # number of collector units (default = 4)
-gpgpu_operand_collector_num_units_mem                    8 # number of collector units (default = 2)
-gpgpu_operand_collector_num_units_gen                    0 # number of collector units (default = 0)
-gpgpu_operand_collector_num_in_ports_sp                    4 # number of collector unit in ports (default = 1)
-gpgpu_operand_collector_num_in_ports_sfu                    1 # number of collector unit in ports (default = 1)
-gpgpu_operand_collector_num_in_ports_mem                    1 # number of collector unit in ports (default = 1)
-gpgpu_operand_collector_num_in_ports_gen                    0 # number of collector unit in ports (default = 0)
-gpgpu_operand_collector_num_out_ports_sp                    4 # number of collector unit in ports (default = 1)
-gpgpu_operand_collector_num_out_ports_sfu                    1 # number of collector unit in ports (default = 1)
-gpgpu_operand_collector_num_out_ports_mem                    1 # number of collector unit in ports (default = 1)
-gpgpu_operand_collector_num_out_ports_gen                    0 # number of collector unit in ports (default = 0)
-gpgpu_coalesce_arch                   13 # Coalescing arch (default = 13, anything else is off for now)
-gpgpu_num_sched_per_core                    2 # Number of warp schedulers per core
-gpgpu_max_insn_issue_per_warp                    2 # Max number of instructions that can be issued per warp in one cycle by scheduler
-gpgpu_simt_core_sim_order                    1 # Select the simulation order of cores in a cluster (0=Fix, 1=Round-Robin)
-gpgpu_pipeline_widths        4,1,1,4,1,1,6 # Pipeline widths ID_OC_SP,ID_OC_SFU,ID_OC_MEM,OC_EX_SP,OC_EX_SFU,OC_EX_MEM,EX_WB
-gpgpu_num_sp_units                     4 # Number of SP units (default=1)
-gpgpu_num_sfu_units                    1 # Number of SF units (default=1)
-gpgpu_num_mem_units                    1 # Number if ldst units (default=1) WARNING: not hooked up to anything
-gpgpu_scheduler                      gto # Scheduler configuration: < lrr | gto | two_level_active > If two_level_active:<num_active_warps>:<inner_prioritization>:<outer_prioritization>For complete list of prioritization values see shader.h enum scheduler_prioritization_typeDefault: gto
-gpgpu_concurrent_kernel_sm                    0 # Support concurrent kernels on a SM (default = disabled)
-tlb_size                            4096 # Number of tlb entries per SM.
-gpgpu_dram_scheduler                    1 # 0 = fifo, 1 = FR-FCFS (defaul)
-gpgpu_dram_partition_queues              8:8:8:8 # i2$:$2d:d2$:$2i
-l2_ideal                               0 # Use a ideal L2 cache that always hit
-gpgpu_cache:dl2     64:128:16,L:B:m:W:L,A:1024:1024,4:0,32 # unified banked L2 data cache config  {<nsets>:<bsize>:<assoc>,<rep>:<wr>:<alloc>:<wr_alloc>,<mshr>:<N>:<merge>,<mq>}
-gpgpu_cache:dl2_texture_only                    0 # L2 cache used for texture only
-gpgpu_n_mem                           11 # number of memory modules (e.g. memory controllers) in gpu
-gpgpu_n_sub_partition_per_mchannel                    2 # number of memory subpartition in each memory module
-gpgpu_n_mem_per_ctrlr                    1 # number of memory chips per memory controller
-gpgpu_memlatency_stat                   14 # track and display latency statistics 0x2 enables MC, 0x4 enables queue logs
-gpgpu_frfcfs_dram_sched_queue_size                   64 # 0 = unlimited (default); # entries per chip
-gpgpu_dram_return_queue_size                  116 # 0 = unlimited (default); # entries per chip
-gpgpu_dram_buswidth                    4 # default = 4 bytes (8 bytes per cycle at DDR)
-gpgpu_dram_burst_length                    8 # Burst length of each DRAM request (default = 4 data bus cycle)
-dram_data_command_freq_ratio                    4 # Frequency ratio between DRAM data bus and command bus (default = 2 times, i.e. DDR)
-gpgpu_dram_timing_opt nbk=16:CCD=2:RRD=6:RCD=12:RAS=28:RP=12:RC=40: CL=12:WL=4:CDLR=5:WR=12:nbkgrp=1:CCDL=0:RTPL=0 # DRAM timing parameters = {nbk:tCCD:tRRD:tRCD:tRAS:tRP:tRC:CL:WL:tCDLR:tWR:nbkgrp:tCCDL:tRTPL}
-rop_latency                          120 # ROP queue latency (default 85)
-dram_latency                         100 # DRAM latency (default 30)
-gpgpu_mem_addr_mapping dramid@8;00000000.00000000.00000000.00000000.0000RRRR.RRRRRRRR.RBBBCCCC.BCCSSSSS # mapping memory address to dram model {dramid@<start bit>;<memory address map>}
-gpgpu_mem_addr_test                    0 # run sweep test to check address mapping for aliased address
-gpgpu_mem_address_mask                    1 # 0 = old addressing mask, 1 = new addressing mask, 2 = new add. mask + flipped bank sel and chip sel bits
-gpuwattch_xml_file  gpuwattch_geforcegtx1080ti.xml # GPUWattch XML file
-power_simulation_enabled                    1 # Turn on power simulator (1=On, 0=Off)
-power_per_cycle_dump                    0 # Dump detailed power output each cycle
-power_trace_enabled                    0 # produce a file for the power trace (1=On, 0=Off)
-power_trace_zlevel                     6 # Compression level of the power trace output log (0=no comp, 9=highest)
-steady_power_levels_enabled                    0 # produce a file for the steady power levels (1=On, 0=Off)
-steady_state_definition                  8:4 # allowed deviation:number of samples
-gpgpu_max_cycle                        0 # terminates gpu simulation early (0 = no limit)
-gpgpu_max_insn                         0 # terminates gpu simulation early (0 = no limit)
-gpgpu_max_cta                          0 # terminates gpu simulation early (0 = no limit)
-gpgpu_runtime_stat                   500 # display runtime statistics such as dram utilization {<freq>:<flag>}
-liveness_message_freq                    1 # Minimum number of seconds between simulation liveness messages (0 = always print)
-gpgpu_flush_l1_cache                    0 # Flush L1 cache at the end of each kernel call
-gpgpu_flush_l2_cache                    0 # Flush L2 cache at the end of each kernel call
-gpgpu_deadlock_detect                    0 # Stop the simulation at deadlock (1=on (default), 0=off)
-gpgpu_ptx_instruction_classification                    0 # if enabled will classify ptx instruction types per kernel (Max 255 kernels now)
-gpgpu_ptx_sim_mode                     0 # Select between Performance (default) or Functional simulation (1)
-gpgpu_clock_domains 1481.0:2962.0:1481.0:2750.0 # Clock Domain Frequencies in MhZ {<Core Clock>:<ICNT Clock>:<L2 Clock>:<DRAM Clock>}
-gpgpu_max_concurrent_kernel                    8 # maximum kernels that can run concurrently on GPU
-gpgpu_cflog_interval                    0 # Interval between each snapshot in control flow logger
-visualizer_enabled                     0 # Turn on visualizer output (1=On, 0=Off)
-visualizer_outputfile                 NULL # Specifies the output log file for visualizer
-visualizer_zlevel                      6 # Compression level of the visualizer output log (0=no comp, 9=highest)
-trace_enabled                          0 # Turn on traces
-trace_components                    none # comma seperated list of traces to enable. Complete list found in trace_streams.tup. Default none
-trace_sampling_core                    0 # The core which is printed using CORE_DPRINTF. Default 0
-trace_sampling_memory_partition                   -1 # The memory partition which is printed using MEMPART_DPRINTF. Default -1 (i.e. all)
-gddr_size                            1GB # Size of GDDR in MB/GB.(GLOBAL_HEAP_START, GLOBAL_HEAP_START + gddr_size) would be used for unmanged memory, (GLOBAL_HEAP_START + gddr_size, GLOBAL_HEAP_START + gddr_size*2) would be used for managed memory. 
-page_table_walk_latency                  100 # Average page table walk latency (in core cycle).
-eviction_policy                        0 # Select page eviction policy
-reserve_accessed_page_percent                    0 # Percentage of accessed pages reserved from eviction in hope that they will be accessed in next iteration.
-percentage_of_free_page_buffer                    0 # Percentage of free page buffer to trigger the page eviction.
-page_size                            4KB # GDDR page size, only 4KB/2MB avaliable.
-pcie_bandwith                   16.0GB/s # PCI-e bandwith per direction, in GB/s.
-enable_nvlink                          0 # Enable nvlink 2.0, 150.0GB/s
-enable_rdma                            0 # Enable remote direct memory access
-migrate_threshold                     10 # Access counter threshold for migrating the page from cpu to gpu
-sim_prof_enable                        1 # Enable gpgpu-sim profiler
-hardware_prefetch                      3 # Select gpgpu-sim hardware prefetcher
-hwprefetch_oversub                     0 # Select gpgpu-sim hardware prefetcher under over-subscription
-page_fault_latency                 66645 # Average fault latency (in core cycle).
-enable_accurate_simulation                    0 # Enable page fault functional simulation.
-enable_ptx_file_line_stats                    1 # Turn on PTX source line statistic profiling. (1 = On)
-ptx_line_stats_filename gpgpu_inst_stats.txt # Output file for PTX source line statistics.
-gpgpu_kernel_launch_latency               222150 # Kernel launch latency in cycles. Default: 0
-gpgpu_cdp_enabled                      0 # Turn on CDP
-save_embedded_ptx                      0 # saves ptx files embedded in binary as <n>.ptx
-keep                                   0 # keep intermediate files created by GPGPU-Sim when interfacing with external programs
-gpgpu_ptx_save_converted_ptxplus                    0 # Saved converted ptxplus to a file
-ptx_opcode_latency_int         4,13,4,5,145 # Opcode latencies for integers <ADD,MAX,MUL,MAD,DIV>Default 1,1,19,25,145
-ptx_opcode_latency_fp          4,13,4,5,39 # Opcode latencies for single precision floating points <ADD,MAX,MUL,MAD,DIV>Default 1,1,1,1,30
-ptx_opcode_latency_dp         8,19,8,8,330 # Opcode latencies for double precision floating points <ADD,MAX,MUL,MAD,DIV>Default 8,8,8,8,335
-ptx_opcode_initiation_int            1,2,2,2,8 # Opcode initiation intervals for integers <ADD,MAX,MUL,MAD,DIV>Default 1,1,4,4,32
-ptx_opcode_initiation_fp            1,2,1,1,4 # Opcode initiation intervals for single precision floating points <ADD,MAX,MUL,MAD,DIV>Default 1,1,1,1,5
-ptx_opcode_initiation_dp          1,2,1,1,130 # Opcode initiation intervals for double precision floating points <ADD,MAX,MUL,MAD,DIV>Default 8,8,8,8,130
-cdp_latency         7200,8000,100,12000,1600 # CDP API latency <cudaStreamCreateWithFlags, cudaGetParameterBufferV2_init_perWarp, cudaGetParameterBufferV2_perKernel, cudaLaunchDeviceV2_init_perWarp, cudaLaunchDevicV2_perKernel>Default 7200,8000,100,12000,1600
DRAM Timing Options:
nbk                                    16 # number of banks
CCD                                     2 # column to column delay
RRD                                     6 # minimal delay between activation of rows in different banks
RCD                                    12 # row to column delay
RAS                                    28 # time needed to activate row
RP                                     12 # time needed to precharge (deactivate) row
RC                                     40 # row cycle time
CDLR                                    5 # switching from write to read (changes tWTR)
WR                                     12 # last data-in to row precharge
CL                                     12 # CAS latency
WL                                      4 # Write latency
nbkgrp                                  1 # number of bank groups
CCDL                                    0 # column to column delay between accesses to different bank groups
RTPL                                    0 # read to precharge delay between accesses to different bank groups
Total number of memory sub partition = 22
addr_dec_mask[CHIP]  = 0000000000000000 	high:64 low:0
addr_dec_mask[BK]    = 0000000000007080 	high:15 low:7
addr_dec_mask[ROW]   = 000000000fff8000 	high:28 low:15
addr_dec_mask[COL]   = 0000000000000f7f 	high:12 low:0
addr_dec_mask[BURST] = 000000000000001f 	high:5 low:0
sub_partition_id_mask = 0000000000000080
GPGPU-Sim uArch: clock freqs: 1481000000.000000:2962000000.000000:1481000000.000000:2750000000.000000
GPGPU-Sim uArch: clock periods: 0.00000000067521944632:0.00000000033760972316:0.00000000067521944632:0.00000000036363636364
*** Initializing Memory Statistics ***
GPGPU-Sim uArch: interconnect node map (shaderID+MemID to icntID)
GPGPU-Sim uArch: Memory nodes ID start from index: 28
GPGPU-Sim uArch:    0   1   2   3   4   5   6
GPGPU-Sim uArch:    7   8   9  10  11  12  13
GPGPU-Sim uArch:   14  15  16  17  18  19  20
GPGPU-Sim uArch:   21  22  23  24  25  26  27
GPGPU-Sim uArch:   28  29  30  31  32  33  34
GPGPU-Sim uArch:   35  36  37  38  39  40  41
GPGPU-Sim uArch:   42  43  44  45  46  47  48
GPGPU-Sim uArch:   49
GPGPU-Sim uArch: interconnect node reverse map (icntID to shaderID+MemID)
GPGPU-Sim uArch: Memory nodes start from ID: 28
GPGPU-Sim uArch:    0   1   2   3   4   5   6
GPGPU-Sim uArch:    7   8   9  10  11  12  13
GPGPU-Sim uArch:   14  15  16  17  18  19  20
GPGPU-Sim uArch:   21  22  23  24  25  26  27
GPGPU-Sim uArch:   28  29  30  31  32  33  34
GPGPU-Sim uArch:   35  36  37  38  39  40  41
GPGPU-Sim uArch:   42  43  44  45  46  47  48
GPGPU-Sim uArch:   49
586531ee639d7fe16d2e358ced7cd07f  /home/gpuser/Desktop/gpgpu-sim_UVMSmart/benchmarks/Managed/stencil/main
GPGPU-Sim uArch: performance model initialization complete.
GPGPU-Sim PTX: __cudaRegisterFatBinary, fat_cubin_handle = 1, filename=default
self exe links to: /home/gpuser/Desktop/gpgpu-sim_UVMSmart/benchmarks/Managed/stencil/main
Running md5sum using "md5sum /home/gpuser/Desktop/gpgpu-sim_UVMSmart/benchmarks/Managed/stencil/main "
Parsing file _cuobjdump_complete_output_Mjl9JH
######### cuobjdump parser ########
## Adding new section ELF
Adding arch: sm_20
Adding identifier: default
## Adding new section ELF
Adding arch: sm_20
Adding identifier: default
## Adding new section PTX
Adding ptx filename: _cuobjdump_1.ptx
Adding arch: sm_20
Adding identifier: default
## Adding new section ELF
Adding arch: sm_20
Adding identifier: default
## Adding new section PTX
Adding ptx filename: _cuobjdump_2.ptx
Adding arch: sm_20
Adding identifier: default
Done parsing!!!
GPGPU-Sim PTX: __cudaRegisterFatBinary, fat_cubin_handle = 2, filename=default
GPGPU-Sim PTX: __cudaRegisterFunction _Z24block2D_hybrid_coarsen_xffPfS_iii : hostFun 0x0x401496, fat_cubin_handle = 2
GPGPU-Sim PTX: allocating shared region for "sh_A0" from 0x0 to 0x0 (shared memory space)
GPGPU-Sim PTX: instruction assembly for function '_Z24block2D_hybrid_coarsen_xffPfS_iii'...   done.
GPGPU-Sim PTX: finding reconvergence points for '_Z24block2D_hybrid_coarsen_xffPfS_iii'...
GPGPU-Sim PTX: Finding dominators for '_Z24block2D_hybrid_coarsen_xffPfS_iii'...
GPGPU-Sim PTX: Finding immediate dominators for '_Z24block2D_hybrid_coarsen_xffPfS_iii'...
GPGPU-Sim PTX: Finding postdominators for '_Z24block2D_hybrid_coarsen_xffPfS_iii'...
GPGPU-Sim PTX: Finding immediate postdominators for '_Z24block2D_hybrid_coarsen_xffPfS_iii'...
GPGPU-Sim PTX: pre-decoding instructions for '_Z24block2D_hybrid_coarsen_xffPfS_iii'...
GPGPU-Sim PTX: reconvergence points for _Z24block2D_hybrid_coarsen_xffPfS_iii...
GPGPU-Sim PTX:  1 (potential) branch divergence @  PC=0x170 (_2.ptx:82) @!%p13 bra BB0_2;
GPGPU-Sim PTX:    immediate post dominator      @  PC=0x200 (_2.ptx:104) mov.f32 %f64, %f69;
GPGPU-Sim PTX:  2 (potential) branch divergence @  PC=0x178 (_2.ptx:83) bra.uni BB0_1;
GPGPU-Sim PTX:    immediate post dominator      @  PC=0x180 (_2.ptx:86) mad.lo.s32 %r33, %r3, %r6, %r1;
GPGPU-Sim PTX:  3 (potential) branch divergence @  PC=0x228 (_2.ptx:109) @!%p16 bra BB0_4;
GPGPU-Sim PTX:    immediate post dominator      @  PC=0x2b0 (_2.ptx:130) mov.f32 %f67, %f68;
GPGPU-Sim PTX:  4 (potential) branch divergence @  PC=0x230 (_2.ptx:110) bra.uni BB0_3;
GPGPU-Sim PTX:    immediate post dominator      @  PC=0x238 (_2.ptx:113) mad.lo.s32 %r58, %r3, %r6, %r2;
GPGPU-Sim PTX:  5 (potential) branch divergence @  PC=0x2d0 (_2.ptx:134) @%p17 bra BB0_33;
GPGPU-Sim PTX:    immediate post dominator      @  PC=0x868 (_2.ptx:370) ret;
GPGPU-Sim PTX:  6 (potential) branch divergence @  PC=0x300 (_2.ptx:143) @!%p13 bra BB0_8;
GPGPU-Sim PTX:    immediate post dominator      @  PC=0x348 (_2.ptx:156) @!%p5 bra BB0_19;
GPGPU-Sim PTX:  7 (potential) branch divergence @  PC=0x308 (_2.ptx:144) bra.uni BB0_7;
GPGPU-Sim PTX:    immediate post dominator      @  PC=0x310 (_2.ptx:147) add.s32 %r75, %r273, 1;
GPGPU-Sim PTX:  8 (potential) branch divergence @  PC=0x348 (_2.ptx:156) @!%p5 bra BB0_19;
GPGPU-Sim PTX:    immediate post dominator      @  PC=0x590 (_2.ptx:251) @!%p16 bra BB0_21;
GPGPU-Sim PTX:  9 (potential) branch divergence @  PC=0x350 (_2.ptx:157) bra.uni BB0_9;
GPGPU-Sim PTX:    immediate post dominator      @  PC=0x358 (_2.ptx:160) add.s32 %r89, %r13, -1;
GPGPU-Sim PTX: 10 (potential) branch divergence @  PC=0x368 (_2.ptx:162) @%p21 bra BB0_11;
GPGPU-Sim PTX:    immediate post dominator      @  PC=0x3e8 (_2.ptx:184) setp.eq.s32%p22, %r15, 0;
GPGPU-Sim PTX: 11 (potential) branch divergence @  PC=0x370 (_2.ptx:163) bra.uni BB0_10;
GPGPU-Sim PTX:    immediate post dominator      @  PC=0x3b8 (_2.ptx:176) shl.b32 %r92, %r11, 1;
GPGPU-Sim PTX: 12 (potential) branch divergence @  PC=0x3b0 (_2.ptx:173) bra.uni BB0_12;
GPGPU-Sim PTX:    immediate post dominator      @  PC=0x3e8 (_2.ptx:184) setp.eq.s32%p22, %r15, 0;
GPGPU-Sim PTX: 13 (potential) branch divergence @  PC=0x3f0 (_2.ptx:185) @%p22 bra BB0_14;
GPGPU-Sim PTX:    immediate post dominator      @  PC=0x470 (_2.ptx:207) setp.eq.s32%p23, %r12, 0;
GPGPU-Sim PTX: 14 (potential) branch divergence @  PC=0x3f8 (_2.ptx:186) bra.uni BB0_13;
GPGPU-Sim PTX:    immediate post dominator      @  PC=0x440 (_2.ptx:199) shl.b32 %r111, %r11, 1;
GPGPU-Sim PTX: 15 (potential) branch divergence @  PC=0x438 (_2.ptx:196) bra.uni BB0_15;
GPGPU-Sim PTX:    immediate post dominator      @  PC=0x470 (_2.ptx:207) setp.eq.s32%p23, %r12, 0;
GPGPU-Sim PTX: 16 (potential) branch divergence @  PC=0x478 (_2.ptx:208) @%p23 bra BB0_17;
GPGPU-Sim PTX:    immediate post dominator      @  PC=0x4f0 (_2.ptx:229) mad.lo.s32 %r149, %r273, %r7, %r3;
GPGPU-Sim PTX: 17 (potential) branch divergence @  PC=0x480 (_2.ptx:209) bra.uni BB0_16;
GPGPU-Sim PTX:    immediate post dominator      @  PC=0x4c8 (_2.ptx:222) shl.b32 %r129, %r11, 1;
GPGPU-Sim PTX: 18 (potential) branch divergence @  PC=0x4c0 (_2.ptx:219) bra.uni BB0_18;
GPGPU-Sim PTX:    immediate post dominator      @  PC=0x4f0 (_2.ptx:229) mad.lo.s32 %r149, %r273, %r7, %r3;
GPGPU-Sim PTX: 19 (potential) branch divergence @  PC=0x590 (_2.ptx:251) @!%p16 bra BB0_21;
GPGPU-Sim PTX:    immediate post dominator      @  PC=0x5d8 (_2.ptx:264) @!%p4 bra BB0_32;
GPGPU-Sim PTX: 20 (potential) branch divergence @  PC=0x598 (_2.ptx:252) bra.uni BB0_20;
GPGPU-Sim PTX:    immediate post dominator      @  PC=0x5a0 (_2.ptx:255) add.s32 %r168, %r273, 1;
GPGPU-Sim PTX: 21 (potential) branch divergence @  PC=0x5d8 (_2.ptx:264) @!%p4 bra BB0_32;
GPGPU-Sim PTX:    immediate post dominator      @  PC=0x820 (_2.ptx:359) bar.sync 0;
GPGPU-Sim PTX: 22 (potential) branch divergence @  PC=0x5e0 (_2.ptx:265) bra.uni BB0_22;
GPGPU-Sim PTX:    immediate post dominator      @  PC=0x5e8 (_2.ptx:268) add.s32 %r183, %r13, -1;
GPGPU-Sim PTX: 23 (potential) branch divergence @  PC=0x5f8 (_2.ptx:270) @%p27 bra BB0_24;
GPGPU-Sim PTX:    immediate post dominator      @  PC=0x678 (_2.ptx:292) setp.eq.s32%p28, %r15, 0;
GPGPU-Sim PTX: 24 (potential) branch divergence @  PC=0x600 (_2.ptx:271) bra.uni BB0_23;
GPGPU-Sim PTX:    immediate post dominator      @  PC=0x648 (_2.ptx:284) shl.b32 %r186, %r11, 1;
GPGPU-Sim PTX: 25 (potential) branch divergence @  PC=0x640 (_2.ptx:281) bra.uni BB0_25;
GPGPU-Sim PTX:    immediate post dominator      @  PC=0x678 (_2.ptx:292) setp.eq.s32%p28, %r15, 0;
GPGPU-Sim PTX: 26 (potential) branch divergence @  PC=0x680 (_2.ptx:293) @%p28 bra BB0_27;
GPGPU-Sim PTX:    immediate post dominator      @  PC=0x700 (_2.ptx:315) shl.b32 %r228, %r11, 1;
GPGPU-Sim PTX: 27 (potential) branch divergence @  PC=0x688 (_2.ptx:294) bra.uni BB0_26;
GPGPU-Sim PTX:    immediate post dominator      @  PC=0x6d0 (_2.ptx:307) shl.b32 %r207, %r11, 1;
GPGPU-Sim PTX: 28 (potential) branch divergence @  PC=0x6c8 (_2.ptx:304) bra.uni BB0_28;
GPGPU-Sim PTX:    immediate post dominator      @  PC=0x700 (_2.ptx:315) shl.b32 %r228, %r11, 1;
GPGPU-Sim PTX: 29 (potential) branch divergence @  PC=0x718 (_2.ptx:318) @%p29 bra BB0_30;
GPGPU-Sim PTX:    immediate post dominator      @  PC=0x788 (_2.ptx:338) mad.lo.s32 %r253, %r273, %r7, %r3;
GPGPU-Sim PTX: 30 (potential) branch divergence @  PC=0x720 (_2.ptx:319) bra.uni BB0_29;
GPGPU-Sim PTX:    immediate post dominator      @  PC=0x768 (_2.ptx:332) mad.lo.s32 %r235, %r228, %r15, %r19;
GPGPU-Sim PTX: 31 (potential) branch divergence @  PC=0x760 (_2.ptx:329) bra.uni BB0_31;
GPGPU-Sim PTX:    immediate post dominator      @  PC=0x788 (_2.ptx:338) mad.lo.s32 %r253, %r273, %r7, %r3;
GPGPU-Sim PTX: 32 (potential) branch divergence @  PC=0x860 (_2.ptx:367) @%p30 bra BB0_6;
GPGPU-Sim PTX:    immediate post dominator      @  PC=0x868 (_2.ptx:370) ret;
GPGPU-Sim PTX: ... end of reconvergence points for _Z24block2D_hybrid_coarsen_xffPfS_iii
GPGPU-Sim PTX: ... done pre-decoding instructions for '_Z24block2D_hybrid_coarsen_xffPfS_iii'.
GPGPU-Sim PTX: finished parsing EMBEDDED .ptx file _2.ptx
Adding _cuobjdump_1.ptx with cubin handle 2
GPGPU-Sim PTX: extracting embedded .ptx to temporary file "_ptx_zwgj6Y"
Running: cat _ptx_zwgj6Y | sed 's/.version 1.5/.version 1.4/' | sed 's/, texmode_independent//' | sed 's/\(\.extern \.const\[1\] .b8 \w\+\)\[\]/\1\[1\]/' | sed 's/const\[.\]/const\[0\]/g' > _ptx2_i5Exsg
GPGPU-Sim PTX: generating ptxinfo using "$CUDA_INSTALL_PATH/bin/ptxas --gpu-name=sm_20 -v _ptx2_i5Exsg --output-file  /dev/null 2> _ptx_zwgj6Yinfo"
GPGPU-Sim PTX: Kernel '_Z24block2D_hybrid_coarsen_xffPfS_iii' : regs=20, lmem=0, smem=0, cmem=68
GPGPU-Sim PTX: removing ptxinfo using "rm -f _ptx_zwgj6Y _ptx2_i5Exsg _ptx_zwgj6Yinfo"
GPGPU-Sim PTX: loading globals with explicit initializers... 
GPGPU-Sim PTX: finished loading globals (0 bytes total).
GPGPU-Sim PTX: loading constants with explicit initializers...  done.
CUDA accelerated 7 points stencil codes****
Original version by Li-Wen Chang <lchang20@illinois.edu> and I-Jui Sung<sung10@illinois.edu>
This version maintained by Chris Rodrigues  ***********

GPGPU-Sim PTX: cudaLaunch for 0x0x401496 (mode=performance simulation) on stream 0
GPGPU-Sim PTX: pushing kernel '_Z24block2D_hybrid_coarsen_xffPfS_iii' to stream 0, gridDim= (2,32,1) blockDim = (32,4,1) 
GPGPU-Sim uArch: Shader 1 bind to kernel 1 '_Z24block2D_hybrid_coarsen_xffPfS_iii'
GPGPU-Sim uArch: CTA/core = 16, limited by: threads
GPGPU-Sim uArch: Shader 2 bind to kernel 1 '_Z24block2D_hybrid_coarsen_xffPfS_iii'
GPGPU-Sim uArch: Shader 3 bind to kernel 1 '_Z24block2D_hybrid_coarsen_xffPfS_iii'
GPGPU-Sim uArch: Shader 4 bind to kernel 1 '_Z24block2D_hybrid_coarsen_xffPfS_iii'
GPGPU-Sim uArch: Shader 5 bind to kernel 1 '_Z24block2D_hybrid_coarsen_xffPfS_iii'
GPGPU-Sim uArch: Shader 6 bind to kernel 1 '_Z24block2D_hybrid_coarsen_xffPfS_iii'
GPGPU-Sim uArch: Shader 7 bind to kernel 1 '_Z24block2D_hybrid_coarsen_xffPfS_iii'
GPGPU-Sim uArch: Shader 8 bind to kernel 1 '_Z24block2D_hybrid_coarsen_xffPfS_iii'
GPGPU-Sim uArch: Shader 9 bind to kernel 1 '_Z24block2D_hybrid_coarsen_xffPfS_iii'
GPGPU-Sim uArch: Shader 10 bind to kernel 1 '_Z24block2D_hybrid_coarsen_xffPfS_iii'
GPGPU-Sim uArch: Shader 11 bind to kernel 1 '_Z24block2D_hybrid_coarsen_xffPfS_iii'
GPGPU-Sim uArch: Shader 12 bind to kernel 1 '_Z24block2D_hybrid_coarsen_xffPfS_iii'
GPGPU-Sim uArch: Shader 13 bind to kernel 1 '_Z24block2D_hybrid_coarsen_xffPfS_iii'
GPGPU-Sim uArch: Shader 14 bind to kernel 1 '_Z24block2D_hybrid_coarsen_xffPfS_iii'
GPGPU-Sim uArch: Shader 15 bind to kernel 1 '_Z24block2D_hybrid_coarsen_xffPfS_iii'
GPGPU-Sim uArch: Shader 16 bind to kernel 1 '_Z24block2D_hybrid_coarsen_xffPfS_iii'
GPGPU-Sim uArch: Shader 17 bind to kernel 1 '_Z24block2D_hybrid_coarsen_xffPfS_iii'
GPGPU-Sim uArch: Shader 18 bind to kernel 1 '_Z24block2D_hybrid_coarsen_xffPfS_iii'
GPGPU-Sim uArch: Shader 19 bind to kernel 1 '_Z24block2D_hybrid_coarsen_xffPfS_iii'
GPGPU-Sim uArch: Shader 20 bind to kernel 1 '_Z24block2D_hybrid_coarsen_xffPfS_iii'
GPGPU-Sim uArch: Shader 21 bind to kernel 1 '_Z24block2D_hybrid_coarsen_xffPfS_iii'
GPGPU-Sim uArch: Shader 22 bind to kernel 1 '_Z24block2D_hybrid_coarsen_xffPfS_iii'
GPGPU-Sim uArch: Shader 23 bind to kernel 1 '_Z24block2D_hybrid_coarsen_xffPfS_iii'
GPGPU-Sim uArch: Shader 24 bind to kernel 1 '_Z24block2D_hybrid_coarsen_xffPfS_iii'
GPGPU-Sim uArch: Shader 25 bind to kernel 1 '_Z24block2D_hybrid_coarsen_xffPfS_iii'
GPGPU-Sim uArch: Shader 26 bind to kernel 1 '_Z24block2D_hybrid_coarsen_xffPfS_iii'
GPGPU-Sim uArch: Shader 27 bind to kernel 1 '_Z24block2D_hybrid_coarsen_xffPfS_iii'
GPGPU-Sim uArch: Shader 0 bind to kernel 1 '_Z24block2D_hybrid_coarsen_xffPfS_iii'
Destroy streams for kernel 1: size 0
kernel_name = _Z24block2D_hybrid_coarsen_xffPfS_iii 
kernel_launch_uid = 1 
gpu_sim_cycle = 2619712
gpu_sim_insn = 28848876
gpu_ipc =      11.0122
gpu_tot_sim_cycle = 2841862
gpu_tot_sim_insn = 28848876
gpu_tot_ipc =      10.1514
gpu_tot_issued_cta = 64
max_total_param_size = 0
gpu_stall_dramfull = 0
gpu_stall_icnt2sh    = 614
partiton_reqs_in_parallel = 57633664
partiton_reqs_in_parallel_total    = 0
partiton_level_parallism =      22.0000
partiton_level_parallism_total  =      20.2802
partiton_reqs_in_parallel_util = 57633664
partiton_reqs_in_parallel_util_total    = 0
gpu_sim_cycle_parition_util = 2619712
gpu_tot_sim_cycle_parition_util    = 0
partiton_level_parallism_util =      22.0000
partiton_level_parallism_util_total  =      22.0000
partiton_replys_in_parallel = 47008
partiton_replys_in_parallel_total    = 0
L2_BW  =       1.7008 GB/Sec
L2_BW_total  =       1.5678 GB/Sec
gpu_total_sim_rate=4812

========= Core cache stats =========
L1I_cache:
	L1I_total_cache_accesses = 579228
	L1I_total_cache_misses = 2440
	L1I_total_cache_miss_rate = 0.0042
	L1I_total_cache_pending_hits = 0
	L1I_total_cache_reservation_fails = 0
L1D_cache:
	L1D_cache_core[0]: Access = 0, Miss = 0, Miss_rate = -nan, Pending_hits = 0, Reservation_fails = 0
	L1D_cache_core[1]: Access = 0, Miss = 0, Miss_rate = -nan, Pending_hits = 0, Reservation_fails = 0
	L1D_cache_core[2]: Access = 0, Miss = 0, Miss_rate = -nan, Pending_hits = 0, Reservation_fails = 0
	L1D_cache_core[3]: Access = 0, Miss = 0, Miss_rate = -nan, Pending_hits = 0, Reservation_fails = 0
	L1D_cache_core[4]: Access = 0, Miss = 0, Miss_rate = -nan, Pending_hits = 0, Reservation_fails = 0
	L1D_cache_core[5]: Access = 0, Miss = 0, Miss_rate = -nan, Pending_hits = 0, Reservation_fails = 0
	L1D_cache_core[6]: Access = 0, Miss = 0, Miss_rate = -nan, Pending_hits = 0, Reservation_fails = 0
	L1D_cache_core[7]: Access = 0, Miss = 0, Miss_rate = -nan, Pending_hits = 0, Reservation_fails = 0
	L1D_cache_core[8]: Access = 0, Miss = 0, Miss_rate = -nan, Pending_hits = 0, Reservation_fails = 0
	L1D_cache_core[9]: Access = 0, Miss = 0, Miss_rate = -nan, Pending_hits = 0, Reservation_fails = 0
	L1D_cache_core[10]: Access = 0, Miss = 0, Miss_rate = -nan, Pending_hits = 0, Reservation_fails = 0
	L1D_cache_core[11]: Access = 0, Miss = 0, Miss_rate = -nan, Pending_hits = 0, Reservation_fails = 0
	L1D_cache_core[12]: Access = 0, Miss = 0, Miss_rate = -nan, Pending_hits = 0, Reservation_fails = 0
	L1D_cache_core[13]: Access = 0, Miss = 0, Miss_rate = -nan, Pending_hits = 0, Reservation_fails = 0
	L1D_cache_core[14]: Access = 0, Miss = 0, Miss_rate = -nan, Pending_hits = 0, Reservation_fails = 0
	L1D_cache_core[15]: Access = 0, Miss = 0, Miss_rate = -nan, Pending_hits = 0, Reservation_fails = 0
	L1D_cache_core[16]: Access = 0, Miss = 0, Miss_rate = -nan, Pending_hits = 0, Reservation_fails = 0
	L1D_cache_core[17]: Access = 0, Miss = 0, Miss_rate = -nan, Pending_hits = 0, Reservation_fails = 0
	L1D_cache_core[18]: Access = 0, Miss = 0, Miss_rate = -nan, Pending_hits = 0, Reservation_fails = 0
	L1D_cache_core[19]: Access = 0, Miss = 0, Miss_rate = -nan, Pending_hits = 0, Reservation_fails = 0
	L1D_cache_core[20]: Access = 0, Miss = 0, Miss_rate = -nan, Pending_hits = 0, Reservation_fails = 0
	L1D_cache_core[21]: Access = 0, Miss = 0, Miss_rate = -nan, Pending_hits = 0, Reservation_fails = 0
	L1D_cache_core[22]: Access = 0, Miss = 0, Miss_rate = -nan, Pending_hits = 0, Reservation_fails = 0
	L1D_cache_core[23]: Access = 0, Miss = 0, Miss_rate = -nan, Pending_hits = 0, Reservation_fails = 0
	L1D_cache_core[24]: Access = 0, Miss = 0, Miss_rate = -nan, Pending_hits = 0, Reservation_fails = 0
	L1D_cache_core[25]: Access = 0, Miss = 0, Miss_rate = -nan, Pending_hits = 0, Reservation_fails = 0
	L1D_cache_core[26]: Access = 0, Miss = 0, Miss_rate = -nan, Pending_hits = 0, Reservation_fails = 0
	L1D_cache_core[27]: Access = 0, Miss = 0, Miss_rate = -nan, Pending_hits = 0, Reservation_fails = 0
	L1D_total_cache_accesses = 0
	L1D_total_cache_misses = 0
	L1D_total_cache_pending_hits = 0
	L1D_total_cache_reservation_fails = 0
	L1D_cache_data_port_util = 0.000
	L1D_cache_fill_port_util = 0.000
L1C_cache:
	L1C_total_cache_accesses = 1792
	L1C_total_cache_misses = 1632
	L1C_total_cache_miss_rate = 0.9107
	L1C_total_cache_pending_hits = 0
	L1C_total_cache_reservation_fails = 1444
L1T_cache:
	L1T_total_cache_accesses = 0
	L1T_total_cache_misses = 0
	L1T_total_cache_pending_hits = 0
	L1T_total_cache_reservation_fails = 0

Total_core_cache_stats:
	Total_core_cache_stats_breakdown[GLOBAL_ACC_R][HIT] = 0
	Total_core_cache_stats_breakdown[GLOBAL_ACC_R][HIT_RESERVED] = 0
	Total_core_cache_stats_breakdown[GLOBAL_ACC_R][MISS] = 0
	Total_core_cache_stats_breakdown[GLOBAL_ACC_R][RESERVATION_FAIL] = 0
	Total_core_cache_stats_breakdown[LOCAL_ACC_R][HIT] = 0
	Total_core_cache_stats_breakdown[LOCAL_ACC_R][HIT_RESERVED] = 0
	Total_core_cache_stats_breakdown[LOCAL_ACC_R][MISS] = 0
	Total_core_cache_stats_breakdown[LOCAL_ACC_R][RESERVATION_FAIL] = 0
	Total_core_cache_stats_breakdown[CONST_ACC_R][HIT] = 160
	Total_core_cache_stats_breakdown[CONST_ACC_R][HIT_RESERVED] = 0
	Total_core_cache_stats_breakdown[CONST_ACC_R][MISS] = 1632
	Total_core_cache_stats_breakdown[CONST_ACC_R][RESERVATION_FAIL] = 1444
	Total_core_cache_stats_breakdown[TEXTURE_ACC_R][HIT] = 0
	Total_core_cache_stats_breakdown[TEXTURE_ACC_R][HIT_RESERVED] = 0
	Total_core_cache_stats_breakdown[TEXTURE_ACC_R][MISS] = 0
	Total_core_cache_stats_breakdown[TEXTURE_ACC_R][RESERVATION_FAIL] = 0
	Total_core_cache_stats_breakdown[GLOBAL_ACC_W][HIT] = 0
	Total_core_cache_stats_breakdown[GLOBAL_ACC_W][HIT_RESERVED] = 0
	Total_core_cache_stats_breakdown[GLOBAL_ACC_W][MISS] = 0
	Total_core_cache_stats_breakdown[GLOBAL_ACC_W][RESERVATION_FAIL] = 0
	Total_core_cache_stats_breakdown[LOCAL_ACC_W][HIT] = 0
	Total_core_cache_stats_breakdown[LOCAL_ACC_W][HIT_RESERVED] = 0
	Total_core_cache_stats_breakdown[LOCAL_ACC_W][MISS] = 0
	Total_core_cache_stats_breakdown[LOCAL_ACC_W][RESERVATION_FAIL] = 0
	Total_core_cache_stats_breakdown[L1_WRBK_ACC][HIT] = 0
	Total_core_cache_stats_breakdown[L1_WRBK_ACC][HIT_RESERVED] = 0
	Total_core_cache_stats_breakdown[L1_WRBK_ACC][MISS] = 0
	Total_core_cache_stats_breakdown[L1_WRBK_ACC][RESERVATION_FAIL] = 0
	Total_core_cache_stats_breakdown[L2_WRBK_ACC][HIT] = 0
	Total_core_cache_stats_breakdown[L2_WRBK_ACC][HIT_RESERVED] = 0
	Total_core_cache_stats_breakdown[L2_WRBK_ACC][MISS] = 0
	Total_core_cache_stats_breakdown[L2_WRBK_ACC][RESERVATION_FAIL] = 0
	Total_core_cache_stats_breakdown[INST_ACC_R][HIT] = 576788
	Total_core_cache_stats_breakdown[INST_ACC_R][HIT_RESERVED] = 0
	Total_core_cache_stats_breakdown[INST_ACC_R][MISS] = 2440
	Total_core_cache_stats_breakdown[INST_ACC_R][RESERVATION_FAIL] = 0
	Total_core_cache_stats_breakdown[L1_WR_ALLOC_R][HIT] = 0
	Total_core_cache_stats_breakdown[L1_WR_ALLOC_R][HIT_RESERVED] = 0
	Total_core_cache_stats_breakdown[L1_WR_ALLOC_R][MISS] = 0
	Total_core_cache_stats_breakdown[L1_WR_ALLOC_R][RESERVATION_FAIL] = 0
	Total_core_cache_stats_breakdown[L2_WR_ALLOC_R][HIT] = 0
	Total_core_cache_stats_breakdown[L2_WR_ALLOC_R][HIT_RESERVED] = 0
	Total_core_cache_stats_breakdown[L2_WR_ALLOC_R][MISS] = 0
	Total_core_cache_stats_breakdown[L2_WR_ALLOC_R][RESERVATION_FAIL] = 0
	Total_core_cache_stats_breakdown[CONST_ACC_R][TOTAL_ACCESS] = 1792
	Total_core_cache_stats_breakdown[INST_ACC_R][TOTAL_ACCESS] = 579228
Shader 0 warp_id issue ditsribution:
warp_id:
0, 1, 2, 3, 4, 5, 6, 7, 
distro:
4828, 4669, 4648, 4805, 4827, 4656, 4647, 4814, 
gpgpu_n_tot_thrd_icount = 33319424
gpgpu_n_tot_w_icount = 1041232
gpgpu_n_stall_shd_mem = 13447
gpgpu_n_mem_read_local = 0
gpgpu_n_mem_write_local = 0
gpgpu_n_mem_read_global = 31384
gpgpu_n_mem_write_global = 15120
gpgpu_n_mem_texture = 0
gpgpu_n_mem_const = 28
gpgpu_n_load_insn  = 766208
gpgpu_n_store_insn = 476280
gpgpu_n_shmem_insn = 3155288
gpgpu_n_tex_insn = 0
gpgpu_n_const_mem_insn = 0
gpgpu_n_param_mem_insn = 57344
gpgpu_n_shmem_bkconflict = 0
gpgpu_n_cache_bkconflict = 0
gpgpu_n_intrawarp_mshr_merge = 0
gpgpu_n_cmem_portconflict = 1444
gpgpu_stall_shd_mem[c_mem][bk_conf] = 1444
gpgpu_stall_shd_mem[c_mem][mshr_rc] = 0
gpgpu_stall_shd_mem[c_mem][icnt_rc] = 0
gpgpu_stall_shd_mem[c_mem][data_port_stall] = 0
gpgpu_stall_shd_mem[t_mem][mshr_rc] = 0
gpgpu_stall_shd_mem[t_mem][icnt_rc] = 0
gpgpu_stall_shd_mem[t_mem][data_port_stall] = 0
gpgpu_stall_shd_mem[s_mem][bk_conf] = 0
gpgpu_stall_shd_mem[gl_mem][bk_conf] = 0
gpgpu_stall_shd_mem[gl_mem][coal_stall] = 0
gpgpu_stall_shd_mem[gl_mem][data_port_stall] = 0
gpgpu_stall_shd_mem[g_mem_ld][mshr_rc] = 0
gpgpu_stall_shd_mem[g_mem_ld][icnt_rc] = 12003
gpgpu_stall_shd_mem[g_mem_ld][wb_icnt_rc] = 0
gpgpu_stall_shd_mem[g_mem_ld][wb_rsrv_fail] = 0
gpgpu_stall_shd_mem[g_mem_st][mshr_rc] = 0
gpgpu_stall_shd_mem[g_mem_st][icnt_rc] = 0
gpgpu_stall_shd_mem[g_mem_st][wb_icnt_rc] = 0
gpgpu_stall_shd_mem[g_mem_st][wb_rsrv_fail] = 0
gpgpu_stall_shd_mem[l_mem_ld][mshr_rc] = 0
gpgpu_stall_shd_mem[l_mem_ld][icnt_rc] = 0
gpgpu_stall_shd_mem[l_mem_ld][wb_icnt_rc] = 0
gpgpu_stall_shd_mem[l_mem_ld][wb_rsrv_fail] = 0
gpgpu_stall_shd_mem[l_mem_st][mshr_rc] = 0
gpgpu_stall_shd_mem[l_mem_st][icnt_rc] = 0
gpgpu_stall_shd_mem[l_mem_ld][wb_icnt_rc] = 0
gpgpu_stall_shd_mem[l_mem_ld][wb_rsrv_fail] = 0
gpu_reg_bank_conflict_stalls = 0
Warp Occupancy Distribution:
Stall:23503	W0_Idle:2452158	W0_Scoreboard:141558720	W1:60480	W2:0	W3:0	W4:0	W5:0	W6:0	W7:0	W8:0	W9:0	W10:0	W11:0	W12:0	W13:0	W14:0	W15:0	W16:0	W17:0	W18:0	W19:0	W20:0	W21:0	W22:0	W23:0	W24:0	W25:0	W26:0	W27:0	W28:0	W29:0	W30:0	W31:408180	W32:572572
traffic_breakdown_coretomem[CONST_ACC_R] = 224 {8:28,}
traffic_breakdown_coretomem[GLOBAL_ACC_R] = 251072 {8:31384,}
traffic_breakdown_coretomem[GLOBAL_ACC_W] = 2056320 {136:15120,}
traffic_breakdown_coretomem[INST_ACC_R] = 3808 {8:476,}
traffic_breakdown_memtocore[CONST_ACC_R] = 2016 {72:28,}
traffic_breakdown_memtocore[GLOBAL_ACC_R] = 3542464 {40:7560,136:23824,}
traffic_breakdown_memtocore[GLOBAL_ACC_W] = 120960 {8:15120,}
traffic_breakdown_memtocore[INST_ACC_R] = 64736 {136:476,}
maxmrqlatency = 48 
maxdqlatency = 0 
maxmflatency = 171210 
averagemflatency = 35289 
max_icnt2mem_latency = 170961 
max_icnt2sh_latency = 2841861 
mrq_lat_table:26510 	6065 	1059 	6965 	4781 	1262 	0 	0 	0 	0 	0 	0 	0 	0 	0 	0 	0 	0 	0 	0 	0 	0 	0 	0 	0 	0 	0 	0 	0 	0 	0 	0 	
dq_lat_table:0 	0 	0 	0 	0 	0 	0 	0 	0 	0 	0 	0 	0 	0 	0 	0 	0 	0 	0 	0 	0 	0 	0 	0 	0 	0 	0 	0 	0 	0 	0 	0 	
mf_lat_table:0 	0 	0 	0 	0 	0 	0 	22443 	7390 	1 	14 	28 	78 	99 	631 	2110 	9971 	3767 	0 	0 	0 	0 	0 	0 	0 	0 	0 	0 	0 	0 	0 	0 	
icnt2mem_lat_table:0 	0 	24527 	23 	16 	0 	5742 	1 	1 	0 	14 	42 	64 	103 	650 	2101 	9970 	3754 	0 	0 	0 	0 	0 	0 	
icnt2sh_lat_table:0 	0 	24809 	6580 	23 	0 	0 	0 	0 	0 	0 	0 	0 	0 	0 	0 	0 	0 	252 	2016 	6004 	6848 	0 	0 	
mf_lat_pw_table:0 	0 	0 	0 	0 	0 	0 	1040 	94 	0 	1 	2 	3 	6 	28 	131 	453 	134 	0 	0 	0 	0 	0 	0 	0 	0 	0 	0 	0 	0 	0 	0 	
maximum concurrent accesses to same row:
dram[0]:        32        32        32        32        28        28        18        18        28        30        28        28        32        32        32        32 
dram[1]:        32        32        32        32        28        28        16        16        28        28        28        28        32        32        32        32 
dram[2]:        32        32        32        32        26        26        16        16        26        26        30        30        32        32        32        32 
dram[3]:        32        32        32        32        26        30        16        16        26        26        28        28        32        32        30        32 
dram[4]:        32        32        32        32        24        28        18        18        26        26        28        28        32        32        30        32 
dram[5]:        30        30        32        32        28        28        20        20        24        24        28        28        32        32        30        30 
dram[6]:        30        30        32        32        28        28        18        18        24        24        28        28        32        32        32        32 
dram[7]:        30        30        32        32        28        28        20        20        28        28        30        30        32        32        32        32 
dram[8]:        30        30        32        32        26        26        18        18        28        28        28        28        32        32        32        32 
dram[9]:        32        32        32        32        26        26        18        18        28        28        28        28        32        32        32        32 
dram[10]:        32        32        32        32        26        26        16        16        28        30        28        28        32        32        32        32 
maximum service time to same row:
dram[0]:    325633    325265    350478    350014    291247    291356    336053    335594    418343    417887    307915    307794    363622    363158    321496    321957 
dram[1]:    325633    325277    350598    350132    291237    291228    336047    335589    418330    417764    307906    307781    363625    363160    321481    321947 
dram[2]:    325625    325266    350479    350016    291246    291354    336050    335587    418338    417880    307915    307794    363629    363051    360542    361005 
dram[3]:    325627    325265    350590    350125    291238    291237    336047    335590    418222    417760    307915    307795    363625    363161    321492    360978 
dram[4]:    325636    325270    350476    350012    291245    291354    336046    335584    418338    417870    308016    308027    363516    363047    321608    360996 
dram[5]:    325625    325263    350597    350133    291246    291451    336046    335589    418211    417756    307798    307679    363635    363172    321483    321944 
dram[6]:    325625    325263    350590    350019    291244    291355    336051    335592    418326    417873    308022    308031    363509    363040    321605    322072 
dram[7]:    325628    325262    350590    350122    291244    291354    336049    335586    418215    417762    307786    307679    363633    363169    321484    321946 
dram[8]:    325627    325262    350601    350133    291247    291465    336056    335596    418339    417881    308012    308016    363513    363051    321601    322056 
dram[9]:    325627    325263    350598    350029    291245    291355    336053    335597    418339    417886    307792    307671    363628    363164    321490    321946 
dram[10]:    325631    325263    350590    350127    291245    291237    336045    335584    418323    417860    307905    307800    363627    363163    321489    321946 
average row accesses per activate:
dram[0]:  4.879310  4.862069  4.689655  4.459016  5.681818  5.813953  4.237288  4.464286  4.555555  4.730769  5.148936  5.377778  5.877551  5.760000  5.557693  5.557693 
dram[1]:  4.622951  4.862069  4.433333  4.222222  5.953488  5.953488  3.968254  4.166667  4.555555  4.555555  4.584906  4.418182  6.127660  6.400000  5.666667  6.000000 
dram[2]:  4.645161  4.881356  4.666667  4.360656  5.953488  5.953488  3.906250  3.846154  4.472727  4.641510  4.584906  4.584906  6.127660  6.260870  5.755102  6.000000 
dram[3]:  4.645161  4.645161  4.586207  4.290323  5.688889  5.953488  4.032258  3.846154  4.641510  4.823529  4.418182  4.500000  5.760000  5.877551  5.222222  5.423077 
dram[4]:  4.645161  4.800000  4.433333  4.290323  5.250000  5.250000  4.266667  4.266667  4.641510  4.823529  4.500000  4.500000  5.877551  6.000000  5.442307  5.660000 
dram[5]:  4.147059  4.548387  4.426229  4.426229  6.000000  5.727273  4.491228  4.491228  4.315790  4.169491  4.673077  4.339286  5.877551  6.000000  5.895833  6.152174 
dram[6]:  4.208955  4.476191  4.576271  4.576271  5.727273  5.727273  4.491228  4.491228  4.169491  4.032787  4.584906  4.418182  5.640000  5.320755  5.780000  6.148936 
dram[7]:  4.208955  4.208955  4.285714  4.576271  5.727273  5.361702  4.571429  4.571429  4.101695  4.245614  4.882353  5.081633  5.423077  5.320755  6.020833  6.020833 
dram[8]:  4.272727  4.147059  4.090909  4.576271  5.434783  5.208333  4.740741  4.740741  4.481482  4.481482  4.882353  4.882353  5.640000  5.640000  6.020833  6.020833 
dram[9]:  4.500000  4.430769  4.090909  4.354839  5.434783  5.434783  4.830189  4.830189  4.462963  4.084746  4.882353  5.081633  5.875000  5.875000  5.549020  5.549020 
dram[10]:  4.645161  4.721312  4.426229  4.500000  5.681818  5.813953  4.740741  4.923077  4.303571  4.084746  4.622642  4.803922  5.877551  5.877551  5.339622  5.442307 
average row locality = 46642/9514 = 4.902460
number of total memory accesses made:
dram[0]:         0         0         0         0         0         0         0         0         0         0         0         0         0         0         0         0 
dram[1]:         0         0         0         0         0         0         0         0         0         0         0         0         0         0         0         0 
dram[2]:         0         0         0         0         0         0         0         0         0         0         0         0         0         0         0         0 
dram[3]:         0         0         0         0         0         0         0         0         0         0         0         0         0         0         0         0 
dram[4]:         0         0         0         0         0         0         0         0         0         0         0         0         0         0         0         0 
dram[5]:         0         0         0         0         0         0         0         0         0         0         0         0         0         0         0         0 
dram[6]:         0         0         0         0         0         0         0         0         0         0         0         0         0         0         0         0 
dram[7]:         0         0         0         0         0         0         0         0         0         0         0         0         0         0         0         0 
dram[8]:         0         0         0         0         0         0         0         0         0         0         0         0         0         0         0         0 
dram[9]:         0         0         0         0         0         0         0         0         0         0         0         0         0         0         0         0 
dram[10]:         0         0         0         0         0         0         0         0         0         0         0         0         0         0         0         0 
total accesses: 0
min_bank_accesses = 0!
min_chip_accesses = 0!
number of total read accesses:
dram[0]:       190       189       184       184       173       173       173       173       166       166       162       162       192       192       193       193 
dram[1]:       189       189       181       181       176       176       173       173       166       166       163       163       192       192       193       192 
dram[2]:       192       192       181       181       176       176       173       173       166       166       163       163       192       192       189       189 
dram[3]:       192       192       181       181       176       176       173       173       166       166       163       163       192       192       189       189 
dram[4]:       192       192       181       181       174       174       176       176       166       166       163       163       192       192       190       190 
dram[5]:       189       189       183       183       174       174       176       176       166       166       163       163       192       192       190       190 
dram[6]:       189       189       183       183       174       174       176       176       166       166       163       163       189       189       193       193 
dram[7]:       189       189       183       183       174       174       176       176       164       164       166       166       189       189       193       193 
dram[8]:       189       189       183       183       173       173       176       176       164       164       166       166       189       189       193       193 
dram[9]:       192       192       183       183       173       173       176       176       163       163       166       166       189       189       190       190 
dram[10]:       192       192       183       183       173       173       176       176       163       163       164       164       192       192       190       190 
total reads: 31522
bank skew: 193/162 = 1.19
chip skew: 2868/2864 = 1.00
number of total write accesses:
dram[0]:        93        93        88        88        77        77        77        77        80        80        80        80        96        96        96        96 
dram[1]:        93        93        85        85        80        80        77        77        80        80        80        80        96        96        96        96 
dram[2]:        96        96        85        85        80        80        77        77        80        80        80        80        96        96        93        93 
dram[3]:        96        96        85        85        80        80        77        77        80        80        80        80        96        96        93        93 
dram[4]:        96        96        85        85        78        78        80        80        80        80        80        80        96        96        93        93 
dram[5]:        93        93        87        87        78        78        80        80        80        80        80        80        96        96        93        93 
dram[6]:        93        93        87        87        78        78        80        80        80        80        80        80        93        93        96        96 
dram[7]:        93        93        87        87        78        78        80        80        78        78        83        83        93        93        96        96 
dram[8]:        93        93        87        87        77        77        80        80        78        78        83        83        93        93        96        96 
dram[9]:        96        96        87        87        77        77        80        80        78        78        83        83        93        93        93        93 
dram[10]:        96        96        87        87        77        77        80        80        78        78        81        81        96        96        93        93 
total reads: 15120
bank skew: 96/77 = 1.25
chip skew: 1376/1374 = 1.00
average mf latency per bank:
dram[0]:      51344     24540     52781     21255     45449     20885     44946     19369     46990     23263     45007     19167     44211     21119     50887     23439
dram[1]:      48296     22853     49737     22177     47354     20865     47715     19859     50480     24409     45018     18776     45805     21840     48224     22965
dram[2]:      51422     23392     50088     22309     50447     21936     46194     18720     48895     23580     44932     19391     43868     21394     46850     22976
dram[3]:      53349     24038     51187     21983     49755     21408     44778     18557     46171     23102     41336     19219     44590     21765     48011     23119
dram[4]:      52994     24542     48190     20900     47769     22275     44159     18496     49552     23651     42046     19854     48642     22416     48440     23884
dram[5]:      48860     24069     47357     21275     48549     22137     46580     19008     52229     24393     43556     21575     50586     22347     48257     23674
dram[6]:      49943     24813     51357     22850     48550     21298     47018     19230     50017     23512     43046     21263     48500     23234     51803     24063
dram[7]:      48600     24480     52615     22825     45926     20734     45416     19053     49573     24098     45162     20630     47165     22711     54597     24705
dram[8]:      49359     24396     48691     21738     44485     20680     47570     19993     51299     24148     48450     21042     47819     22690     53109     23760
dram[9]:      48806     23852     51492     22559     47718     21965     48610     20000     50572     24286     49087     20018     44406     22336     50305     24169
dram[10]:      50036     23260     55525     22941     47386     21404     48698     19927     46490     23660     44876     18971     42428     21199     51339     24634
maximum mf latency per bank:
dram[0]:     169875    147891    171195    145304    166569    165999    161366    160933    166560    166127    152968    137340    171083    142682    165994    147913
dram[1]:     170110    147905    145735    145290    166570    166119    161361    160930    166558    165992    152971    137490    171209    142553    165992    147894
dram[2]:     170112    147911    145732    145300    166569    166011    161357    160934    166560    166127    152969    137469    171203    142676    165995    147894
dram[3]:     170112    147905    145738    145285    166586    166133    161366    160909    166557    165994    152975    152799    171201    142547    165989    147890
dram[4]:     170119    147911    171084    145287    166598    166139    161358    160943    166557    166108    152966    152912    171210    142665    165996    147765
dram[5]:     170110    147904    171196    145284    166583    166154    161350    160904    166560    166008    160139    159602    171210    142549    165876    147890
dram[6]:     170112    147911    171082    145285    166583    166138    161348    160782    166573    166127    160251    159805    171206    147589    165993    147763
dram[7]:     169874    147893    171197    145305    166579    166139    161349    160916    166573    166130    160136    159573    171084    147704    165872    147915
dram[8]:     170113    147892    171084    145300    166569    166134    161350    160783    166568    166142    160251    159795    171201    165819    165990    147876
dram[9]:     169874    147904    171198    145305    166569    166010    161347    160905    166560    166131    160139    159578    171085    165947    165872    147904
dram[10]:     170112    147900    171082    145303    166569    166134    161348    160786    166558    165989    160252    159796    171202    142685    165991    147905
Memory Partition 0: 
Cache L2_bank_000:
MSHR contents

Cache L2_bank_001:
MSHR contents
MSHR: tag=0xc03ed180, atomic=0 1 entries : 0x7fde946f52d0 :  mf: uid=644085, sid26:w04, part=0, addr=0xc03ed180, load , size=128, unknown  status = IN_PARTITION_DRAM (2841861), 

In Dram Latency Queue (total = 0): 
DRAM[0]: 16 bks, busW=4 BL=8 CL=12, tRRD=2 tCCD=6, tRCD=12 tRAS=28 tRP=12 tRC=40
n_cmd=4864420 n_nop=4845803 n_act=839 n_pre=823 n_req=4239 n_rd=11459 n_write=5496 bw_util=0.006971
n_activity=87576 dram_eff=0.3872
bk0: 760a 4859742i bk1: 756a 4859254i bk2: 736a 4859823i bk3: 735a 4859273i bk4: 692a 4860528i bk5: 692a 4860145i bk6: 692a 4860176i bk7: 692a 4859928i bk8: 664a 4860200i bk9: 664a 4859750i bk10: 648a 4860457i bk11: 648a 4860166i bk12: 768a 4859801i bk13: 768a 4859447i bk14: 772a 4859703i bk15: 772a 4859202i 
dram_util_bins: 0 0 0 0 0 0 0 0 0 0
dram_eff_bins: 0 0 0 0 0 0 0 0 0 0
mrqq: max=6 avg=0.00877206
Memory Partition 1: 
Cache L2_bank_002:
MSHR contents

Cache L2_bank_003:
MSHR contents
MSHR: tag=0xc03edd80, atomic=0 1 entries : 0x7fde946f8350 :  mf: uid=644078, sid00:w06, part=1, addr=0xc03edd80, load , size=128, unknown  status = IN_PARTITION_DRAM (2841861), 

In Dram Latency Queue (total = 0): 
DRAM[1]: 16 bks, busW=4 BL=8 CL=12, tRRD=2 tCCD=6, tRCD=12 tRAS=28 tRP=12 tRC=40
n_cmd=4864420 n_nop=4845765 n_act=858 n_pre=842 n_req=4239 n_rd=11459 n_write=5496 bw_util=0.006971
n_activity=88069 dram_eff=0.385
bk0: 756a 4859739i bk1: 756a 4859365i bk2: 724a 4859918i bk3: 723a 4859341i bk4: 704a 4860346i bk5: 704a 4860026i bk6: 692a 4860149i bk7: 692a 4859865i bk8: 664a 4860267i bk9: 664a 4859725i bk10: 652a 4860350i bk11: 652a 4860015i bk12: 768a 4859854i bk13: 768a 4859476i bk14: 772a 4859734i bk15: 768a 4859298i 
dram_util_bins: 0 0 0 0 0 0 0 0 0 0
dram_eff_bins: 0 0 0 0 0 0 0 0 0 0
mrqq: max=6 avg=0.00886807
Memory Partition 2: 
Cache L2_bank_004:
MSHR contents

Cache L2_bank_005:
MSHR contents
MSHR: tag=0xc03ede80, atomic=0 1 entries : 0x7fdea61b5a40 :  mf: uid=644081, sid27:w07, part=2, addr=0xc03ede80, load , size=128, unknown  status = IN_PARTITION_DRAM (2841861), 

In Dram Latency Queue (total = 0): 
DRAM[2]: 16 bks, busW=4 BL=8 CL=12, tRRD=2 tCCD=6, tRCD=12 tRAS=28 tRP=12 tRC=40
n_cmd=4864420 n_nop=4845771 n_act=857 n_pre=841 n_req=4238 n_rd=11455 n_write=5496 bw_util=0.006969
n_activity=88036 dram_eff=0.3851
bk0: 768a 4859554i bk1: 768a 4859110i bk2: 724a 4859962i bk3: 723a 4859505i bk4: 704a 4860333i bk5: 704a 4860023i bk6: 692a 4860092i bk7: 692a 4859738i bk8: 664a 4860204i bk9: 664a 4859728i bk10: 652a 4860321i bk11: 652a 4859947i bk12: 768a 4859839i bk13: 768a 4859466i bk14: 756a 4859881i bk15: 756a 4859482i 
dram_util_bins: 0 0 0 0 0 0 0 0 0 0
dram_eff_bins: 0 0 0 0 0 0 0 0 0 0
mrqq: max=6 avg=0.00875685
Memory Partition 3: 
Cache L2_bank_006:
MSHR contents

Cache L2_bank_007:
MSHR contents
MSHR: tag=0xc03edf80, atomic=0 1 entries : 0x7fde9d758250 :  mf: uid=644082, sid00:w07, part=3, addr=0xc03edf80, load , size=128, unknown  status = IN_PARTITION_DRAM (2841861), 

In Dram Latency Queue (total = 0): 
DRAM[3]: 16 bks, busW=4 BL=8 CL=12, tRRD=2 tCCD=6, tRCD=12 tRAS=28 tRP=12 tRC=40
n_cmd=4864420 n_nop=4845731 n_act=877 n_pre=861 n_req=4238 n_rd=11455 n_write=5496 bw_util=0.006969
n_activity=88377 dram_eff=0.3836
bk0: 768a 4859548i bk1: 768a 4858977i bk2: 724a 4859973i bk3: 723a 4859457i bk4: 704a 4860310i bk5: 704a 4860021i bk6: 692a 4860096i bk7: 692a 4859760i bk8: 664a 4860203i bk9: 664a 4859886i bk10: 652a 4860375i bk11: 652a 4859936i bk12: 768a 4859804i bk13: 768a 4859344i bk14: 756a 4859808i bk15: 756a 4859324i 
dram_util_bins: 0 0 0 0 0 0 0 0 0 0
dram_eff_bins: 0 0 0 0 0 0 0 0 0 0
mrqq: max=6 avg=0.00887362
Memory Partition 4: 
Cache L2_bank_008:
MSHR contents

Cache L2_bank_009:
MSHR contents

In Dram Latency Queue (total = 0): 
DRAM[4]: 16 bks, busW=4 BL=8 CL=12, tRRD=2 tCCD=6, tRCD=12 tRAS=28 tRP=12 tRC=40
n_cmd=4864420 n_nop=4845718 n_act=871 n_pre=855 n_req=4244 n_rd=11472 n_write=5504 bw_util=0.00698
n_activity=88467 dram_eff=0.3838
bk0: 768a 4859560i bk1: 768a 4858999i bk2: 724a 4859947i bk3: 724a 4859469i bk4: 696a 4860300i bk5: 696a 4859938i bk6: 704a 4860028i bk7: 704a 4859594i bk8: 664a 4860253i bk9: 664a 4859792i bk10: 652a 4860302i bk11: 652a 4859957i bk12: 768a 4859831i bk13: 768a 4859320i bk14: 760a 4859876i bk15: 760a 4859322i 
dram_util_bins: 0 0 0 0 0 0 0 0 0 0
dram_eff_bins: 0 0 0 0 0 0 0 0 0 0
mrqq: max=6 avg=0.0091828
Memory Partition 5: 
Cache L2_bank_010:
MSHR contents

Cache L2_bank_011:
MSHR contents

In Dram Latency Queue (total = 0): 
DRAM[5]: 16 bks, busW=4 BL=8 CL=12, tRRD=2 tCCD=6, tRCD=12 tRAS=28 tRP=12 tRC=40
n_cmd=4864420 n_nop=4845742 n_act=867 n_pre=851 n_req=4240 n_rd=11464 n_write=5496 bw_util=0.006973
n_activity=87841 dram_eff=0.3862
bk0: 756a 4859507i bk1: 756a 4859082i bk2: 732a 4859727i bk3: 732a 4859320i bk4: 696a 4860443i bk5: 696a 4860010i bk6: 704a 4860062i bk7: 704a 4859665i bk8: 664a 4860100i bk9: 664a 4859639i bk10: 652a 4860247i bk11: 652a 4859839i bk12: 768a 4859750i bk13: 768a 4859363i bk14: 760a 4859921i bk15: 760a 4859493i 
dram_util_bins: 0 0 0 0 0 0 0 0 0 0
dram_eff_bins: 0 0 0 0 0 0 0 0 0 0
mrqq: max=6 avg=0.00918342
Memory Partition 6: 
Cache L2_bank_012:
MSHR contents

Cache L2_bank_013:
MSHR contents

In Dram Latency Queue (total = 0): 
DRAM[6]: 16 bks, busW=4 BL=8 CL=12, tRRD=2 tCCD=6, tRCD=12 tRAS=28 tRP=12 tRC=40
n_cmd=4864420 n_nop=4845720 n_act=878 n_pre=862 n_req=4240 n_rd=11464 n_write=5496 bw_util=0.006973
n_activity=88445 dram_eff=0.3835
bk0: 756a 4859567i bk1: 756a 4859006i bk2: 732a 4859777i bk3: 732a 4859301i bk4: 696a 4860405i bk5: 696a 4860099i bk6: 704a 4860090i bk7: 704a 4859738i bk8: 664a 4860058i bk9: 664a 4859623i bk10: 652a 4860309i bk11: 652a 4859815i bk12: 756a 4859825i bk13: 756a 4859358i bk14: 772a 4859643i bk15: 772a 4859313i 
dram_util_bins: 0 0 0 0 0 0 0 0 0 0
dram_eff_bins: 0 0 0 0 0 0 0 0 0 0
mrqq: max=6 avg=0.00922022
Memory Partition 7: 
Cache L2_bank_014:
MSHR contents

Cache L2_bank_015:
MSHR contents

In Dram Latency Queue (total = 0): 
DRAM[7]: 16 bks, busW=4 BL=8 CL=12, tRRD=2 tCCD=6, tRCD=12 tRAS=28 tRP=12 tRC=40
n_cmd=4864420 n_nop=4845708 n_act=876 n_pre=860 n_req=4244 n_rd=11472 n_write=5504 bw_util=0.00698
n_activity=88276 dram_eff=0.3846
bk0: 756a 4859554i bk1: 756a 4858966i bk2: 732a 4859635i bk3: 732a 4859273i bk4: 696a 4860428i bk5: 696a 4860075i bk6: 704a 4860145i bk7: 704a 4859734i bk8: 656a 4860156i bk9: 656a 4859745i bk10: 664a 4860267i bk11: 664a 4859845i bk12: 756a 4859860i bk13: 756a 4859324i bk14: 772a 4859783i bk15: 772a 4859190i 
dram_util_bins: 0 0 0 0 0 0 0 0 0 0
dram_eff_bins: 0 0 0 0 0 0 0 0 0 0
mrqq: max=6 avg=0.00924447
Memory Partition 8: 
Cache L2_bank_016:
MSHR contents

Cache L2_bank_017:
MSHR contents

In Dram Latency Queue (total = 0): 
DRAM[8]: 16 bks, busW=4 BL=8 CL=12, tRRD=2 tCCD=6, tRCD=12 tRAS=28 tRP=12 tRC=40
n_cmd=4864420 n_nop=4845742 n_act=867 n_pre=851 n_req=4240 n_rd=11464 n_write=5496 bw_util=0.006973
n_activity=88140 dram_eff=0.3848
bk0: 756a 4859620i bk1: 756a 4858991i bk2: 732a 4859644i bk3: 732a 4859354i bk4: 692a 4860352i bk5: 692a 4860015i bk6: 704a 4860184i bk7: 704a 4859755i bk8: 656a 4860241i bk9: 656a 4859849i bk10: 664a 4860257i bk11: 664a 4859825i bk12: 756a 4859903i bk13: 756a 4859426i bk14: 772a 4859761i bk15: 772a 4859254i 
dram_util_bins: 0 0 0 0 0 0 0 0 0 0
dram_eff_bins: 0 0 0 0 0 0 0 0 0 0
mrqq: max=6 avg=0.00902266
Memory Partition 9: 
Cache L2_bank_018:
MSHR contents

Cache L2_bank_019:
MSHR contents

In Dram Latency Queue (total = 0): 
DRAM[9]: 16 bks, busW=4 BL=8 CL=12, tRRD=2 tCCD=6, tRCD=12 tRAS=28 tRP=12 tRC=40
n_cmd=4864420 n_nop=4845752 n_act=866 n_pre=850 n_req=4238 n_rd=11456 n_write=5496 bw_util=0.00697
n_activity=87918 dram_eff=0.3856
bk0: 768a 4859493i bk1: 768a 4858962i bk2: 732a 4859622i bk3: 732a 4859218i bk4: 692a 4860362i bk5: 692a 4860009i bk6: 704a 4860128i bk7: 704a 4859813i bk8: 652a 4860249i bk9: 652a 4859691i bk10: 664a 4860231i bk11: 664a 4859965i bk12: 756a 4859937i bk13: 756a 4859506i bk14: 760a 4859782i bk15: 760a 4859349i 
dram_util_bins: 0 0 0 0 0 0 0 0 0 0
dram_eff_bins: 0 0 0 0 0 0 0 0 0 0
mrqq: max=6 avg=0.00900128
Memory Partition 10: 
Cache L2_bank_020:
MSHR contents

Cache L2_bank_021:
MSHR contents
MSHR: tag=0xc03ed080, atomic=0 1 entries : 0x7fde9ff2aac0 :  mf: uid=644088, sid25:w04, part=10, addr=0xc03ed080, load , size=128, unknown  status = IN_PARTITION_DRAM (2841859), 

In Dram Latency Queue (total = 0): 
DRAM[10]: 16 bks, busW=4 BL=8 CL=12, tRRD=2 tCCD=6, tRCD=12 tRAS=28 tRP=12 tRC=40
n_cmd=4864420 n_nop=4845750 n_act=859 n_pre=843 n_req=4242 n_rd=11464 n_write=5504 bw_util=0.006976
n_activity=88029 dram_eff=0.3855
bk0: 768a 4859520i bk1: 768a 4859139i bk2: 732a 4859775i bk3: 732a 4859236i bk4: 692a 4860470i bk5: 692a 4860166i bk6: 704a 4860176i bk7: 704a 4859827i bk8: 652a 4860221i bk9: 652a 4859711i bk10: 656a 4860358i bk11: 656a 4860040i bk12: 768a 4859790i bk13: 768a 4859363i bk14: 760a 4859835i bk15: 760a 4859187i 
dram_util_bins: 0 0 0 0 0 0 0 0 0 0
dram_eff_bins: 0 0 0 0 0 0 0 0 0 0
mrqq: max=5 avg=0.00894598

========= L2 cache stats =========
L2_cache_bank[0]: Access = 2169, Miss = 1433, Miss_rate = 0.661, Pending_hits = 111, Reservation_fails = 0
L2_cache_bank[1]: Access = 2140, Miss = 1432, Miss_rate = 0.669, Pending_hits = 33, Reservation_fails = 0
L2_cache_bank[2]: Access = 2141, Miss = 1433, Miss_rate = 0.669, Pending_hits = 75, Reservation_fails = 0
L2_cache_bank[3]: Access = 2114, Miss = 1432, Miss_rate = 0.677, Pending_hits = 32, Reservation_fails = 0
L2_cache_bank[4]: Access = 2115, Miss = 1432, Miss_rate = 0.677, Pending_hits = 78, Reservation_fails = 0
L2_cache_bank[5]: Access = 2115, Miss = 1432, Miss_rate = 0.677, Pending_hits = 31, Reservation_fails = 0
L2_cache_bank[6]: Access = 2113, Miss = 1432, Miss_rate = 0.678, Pending_hits = 86, Reservation_fails = 0
L2_cache_bank[7]: Access = 2112, Miss = 1432, Miss_rate = 0.678, Pending_hits = 28, Reservation_fails = 0
L2_cache_bank[8]: Access = 2142, Miss = 1434, Miss_rate = 0.669, Pending_hits = 108, Reservation_fails = 0
L2_cache_bank[9]: Access = 2143, Miss = 1434, Miss_rate = 0.669, Pending_hits = 48, Reservation_fails = 0
L2_cache_bank[10]: Access = 2142, Miss = 1433, Miss_rate = 0.669, Pending_hits = 99, Reservation_fails = 0
L2_cache_bank[11]: Access = 2141, Miss = 1433, Miss_rate = 0.669, Pending_hits = 55, Reservation_fails = 0
L2_cache_bank[12]: Access = 2140, Miss = 1433, Miss_rate = 0.670, Pending_hits = 77, Reservation_fails = 0
L2_cache_bank[13]: Access = 2141, Miss = 1433, Miss_rate = 0.669, Pending_hits = 32, Reservation_fails = 0
L2_cache_bank[14]: Access = 2144, Miss = 1434, Miss_rate = 0.669, Pending_hits = 85, Reservation_fails = 0
L2_cache_bank[15]: Access = 2144, Miss = 1434, Miss_rate = 0.669, Pending_hits = 30, Reservation_fails = 0
L2_cache_bank[16]: Access = 2142, Miss = 1433, Miss_rate = 0.669, Pending_hits = 80, Reservation_fails = 0
L2_cache_bank[17]: Access = 2141, Miss = 1433, Miss_rate = 0.669, Pending_hits = 37, Reservation_fails = 0
L2_cache_bank[18]: Access = 2140, Miss = 1432, Miss_rate = 0.669, Pending_hits = 78, Reservation_fails = 0
L2_cache_bank[19]: Access = 2141, Miss = 1432, Miss_rate = 0.669, Pending_hits = 38, Reservation_fails = 0
L2_cache_bank[20]: Access = 2144, Miss = 1433, Miss_rate = 0.668, Pending_hits = 85, Reservation_fails = 0
L2_cache_bank[21]: Access = 2144, Miss = 1433, Miss_rate = 0.668, Pending_hits = 34, Reservation_fails = 0
L2_total_cache_accesses = 47008
L2_total_cache_misses = 31522
L2_total_cache_miss_rate = 0.6706
L2_total_cache_pending_hits = 1360
L2_total_cache_reservation_fails = 0
L2_total_cache_breakdown:
	L2_cache_stats_breakdown[GLOBAL_ACC_R][HIT] = 13808
	L2_cache_stats_breakdown[GLOBAL_ACC_R][HIT_RESERVED] = 1192
	L2_cache_stats_breakdown[GLOBAL_ACC_R][MISS] = 16384
	L2_cache_stats_breakdown[GLOBAL_ACC_R][RESERVATION_FAIL] = 0
	L2_cache_stats_breakdown[LOCAL_ACC_R][HIT] = 0
	L2_cache_stats_breakdown[LOCAL_ACC_R][HIT_RESERVED] = 0
	L2_cache_stats_breakdown[LOCAL_ACC_R][MISS] = 0
	L2_cache_stats_breakdown[LOCAL_ACC_R][RESERVATION_FAIL] = 0
	L2_cache_stats_breakdown[CONST_ACC_R][HIT] = 0
	L2_cache_stats_breakdown[CONST_ACC_R][HIT_RESERVED] = 27
	L2_cache_stats_breakdown[CONST_ACC_R][MISS] = 1
	L2_cache_stats_breakdown[CONST_ACC_R][RESERVATION_FAIL] = 0
	L2_cache_stats_breakdown[TEXTURE_ACC_R][HIT] = 0
	L2_cache_stats_breakdown[TEXTURE_ACC_R][HIT_RESERVED] = 0
	L2_cache_stats_breakdown[TEXTURE_ACC_R][MISS] = 0
	L2_cache_stats_breakdown[TEXTURE_ACC_R][RESERVATION_FAIL] = 0
	L2_cache_stats_breakdown[GLOBAL_ACC_W][HIT] = 0
	L2_cache_stats_breakdown[GLOBAL_ACC_W][HIT_RESERVED] = 0
	L2_cache_stats_breakdown[GLOBAL_ACC_W][MISS] = 15120
	L2_cache_stats_breakdown[GLOBAL_ACC_W][RESERVATION_FAIL] = 0
	L2_cache_stats_breakdown[LOCAL_ACC_W][HIT] = 0
	L2_cache_stats_breakdown[LOCAL_ACC_W][HIT_RESERVED] = 0
	L2_cache_stats_breakdown[LOCAL_ACC_W][MISS] = 0
	L2_cache_stats_breakdown[LOCAL_ACC_W][RESERVATION_FAIL] = 0
	L2_cache_stats_breakdown[L1_WRBK_ACC][HIT] = 0
	L2_cache_stats_breakdown[L1_WRBK_ACC][HIT_RESERVED] = 0
	L2_cache_stats_breakdown[L1_WRBK_ACC][MISS] = 0
	L2_cache_stats_breakdown[L1_WRBK_ACC][RESERVATION_FAIL] = 0
	L2_cache_stats_breakdown[L2_WRBK_ACC][HIT] = 0
	L2_cache_stats_breakdown[L2_WRBK_ACC][HIT_RESERVED] = 0
	L2_cache_stats_breakdown[L2_WRBK_ACC][MISS] = 0
	L2_cache_stats_breakdown[L2_WRBK_ACC][RESERVATION_FAIL] = 0
	L2_cache_stats_breakdown[INST_ACC_R][HIT] = 318
	L2_cache_stats_breakdown[INST_ACC_R][HIT_RESERVED] = 141
	L2_cache_stats_breakdown[INST_ACC_R][MISS] = 17
	L2_cache_stats_breakdown[INST_ACC_R][RESERVATION_FAIL] = 0
	L2_cache_stats_breakdown[L1_WR_ALLOC_R][HIT] = 0
	L2_cache_stats_breakdown[L1_WR_ALLOC_R][HIT_RESERVED] = 0
	L2_cache_stats_breakdown[L1_WR_ALLOC_R][MISS] = 0
	L2_cache_stats_breakdown[L1_WR_ALLOC_R][RESERVATION_FAIL] = 0
	L2_cache_stats_breakdown[L2_WR_ALLOC_R][HIT] = 0
	L2_cache_stats_breakdown[L2_WR_ALLOC_R][HIT_RESERVED] = 0
	L2_cache_stats_breakdown[L2_WR_ALLOC_R][MISS] = 0
	L2_cache_stats_breakdown[L2_WR_ALLOC_R][RESERVATION_FAIL] = 0
	L2_cache_stats_breakdown[GLOBAL_ACC_R][TOTAL_ACCESS] = 31384
	L2_cache_stats_breakdown[CONST_ACC_R][TOTAL_ACCESS] = 28
	L2_cache_stats_breakdown[GLOBAL_ACC_W][TOTAL_ACCESS] = 15120
	L2_cache_stats_breakdown[INST_ACC_R][TOTAL_ACCESS] = 476
L2_cache_data_port_util = 0.001
L2_cache_fill_port_util = 0.002

icnt_total_pkts_mem_to_simt=151824
icnt_total_pkts_simt_to_mem=107488
LD_mem_lat_dist  0 0 0 0 0 0 0 0 0 0 0 0 0 0 0 0 0 0 0 0 0 0 0 0 0 0 0
ST_mem_lat_dist  0 0 0 0 0 0 0 0 0 0 0 0 0 0 0 0 0 0 0 0 0 0 0 0 0 0 0
----------------------------Interconnect-DETAILS--------------------------------
Class 0:
Packet latency average = 9.19841
	minimum = 6
	maximum = 60
Network latency average = 8.747
	minimum = 6
	maximum = 60
Slowest packet = 27
Flit latency average = 7.57002
	minimum = 6
	maximum = 60
Slowest flit = 27
Fragmentation average = 0
	minimum = 0
	maximum = 0
Injected packet rate average = 0.000358879
	minimum = 0.000284383 (at node 0)
	maximum = 0.000424856 (at node 3)
Accepted packet rate average = 0.000358879
	minimum = 0.000284383 (at node 0)
	maximum = 0.000424856 (at node 3)
Injected flit rate average = 0.00098985
	minimum = 0.000650835 (at node 0)
	maximum = 0.00133774 (at node 28)
Accepted flit rate average= 0.00098985
	minimum = 0.000917658 (at node 0)
	maximum = 0.00136809 (at node 3)
Injected packet length average = 2.75817
Accepted packet length average = 2.75817
Total in-flight flits = 0 (0 measured)
====== Overall Traffic Statistics ======
====== Traffic class 0 ======
Packet latency average = 9.19841 (1 samples)
	minimum = 6 (1 samples)
	maximum = 60 (1 samples)
Network latency average = 8.747 (1 samples)
	minimum = 6 (1 samples)
	maximum = 60 (1 samples)
Flit latency average = 7.57002 (1 samples)
	minimum = 6 (1 samples)
	maximum = 60 (1 samples)
Fragmentation average = 0 (1 samples)
	minimum = 0 (1 samples)
	maximum = 0 (1 samples)
Injected packet rate average = 0.000358879 (1 samples)
	minimum = 0.000284383 (1 samples)
	maximum = 0.000424856 (1 samples)
Accepted packet rate average = 0.000358879 (1 samples)
	minimum = 0.000284383 (1 samples)
	maximum = 0.000424856 (1 samples)
Injected flit rate average = 0.00098985 (1 samples)
	minimum = 0.000650835 (1 samples)
	maximum = 0.00133774 (1 samples)
Accepted flit rate average = 0.00098985 (1 samples)
	minimum = 0.000917658 (1 samples)
	maximum = 0.00136809 (1 samples)
Injected packet size average = 2.75817 (1 samples)
Accepted packet size average = 2.75817 (1 samples)
Hops average = 1 (1 samples)
----------------------------END-of-Interconnect-DETAILS-------------------------


gpgpu_simulation_time = 0 days, 1 hrs, 39 min, 55 sec (5995 sec)
gpgpu_simulation_rate = 4812 (inst/sec)
gpgpu_simulation_rate = 474 (cycle/sec)

GPGPU-Sim PTX: cudaLaunch for 0x0x401496 (mode=performance simulation) on stream 0
GPGPU-Sim PTX: pushing kernel '_Z24block2D_hybrid_coarsen_xffPfS_iii' to stream 0, gridDim= (2,32,1) blockDim = (32,4,1) 
GPGPU-Sim uArch: Shader 9 bind to kernel 2 '_Z24block2D_hybrid_coarsen_xffPfS_iii'
GPGPU-Sim uArch: Shader 10 bind to kernel 2 '_Z24block2D_hybrid_coarsen_xffPfS_iii'
GPGPU-Sim uArch: Shader 11 bind to kernel 2 '_Z24block2D_hybrid_coarsen_xffPfS_iii'
GPGPU-Sim uArch: Shader 12 bind to kernel 2 '_Z24block2D_hybrid_coarsen_xffPfS_iii'
GPGPU-Sim uArch: Shader 13 bind to kernel 2 '_Z24block2D_hybrid_coarsen_xffPfS_iii'
GPGPU-Sim uArch: Shader 14 bind to kernel 2 '_Z24block2D_hybrid_coarsen_xffPfS_iii'
GPGPU-Sim uArch: Shader 15 bind to kernel 2 '_Z24block2D_hybrid_coarsen_xffPfS_iii'
GPGPU-Sim uArch: Shader 16 bind to kernel 2 '_Z24block2D_hybrid_coarsen_xffPfS_iii'
GPGPU-Sim uArch: Shader 17 bind to kernel 2 '_Z24block2D_hybrid_coarsen_xffPfS_iii'
GPGPU-Sim uArch: Shader 18 bind to kernel 2 '_Z24block2D_hybrid_coarsen_xffPfS_iii'
GPGPU-Sim uArch: Shader 19 bind to kernel 2 '_Z24block2D_hybrid_coarsen_xffPfS_iii'
GPGPU-Sim uArch: Shader 20 bind to kernel 2 '_Z24block2D_hybrid_coarsen_xffPfS_iii'
GPGPU-Sim uArch: Shader 21 bind to kernel 2 '_Z24block2D_hybrid_coarsen_xffPfS_iii'
GPGPU-Sim uArch: Shader 22 bind to kernel 2 '_Z24block2D_hybrid_coarsen_xffPfS_iii'
GPGPU-Sim uArch: Shader 23 bind to kernel 2 '_Z24block2D_hybrid_coarsen_xffPfS_iii'
GPGPU-Sim uArch: Shader 24 bind to kernel 2 '_Z24block2D_hybrid_coarsen_xffPfS_iii'
GPGPU-Sim uArch: Shader 25 bind to kernel 2 '_Z24block2D_hybrid_coarsen_xffPfS_iii'
GPGPU-Sim uArch: Shader 26 bind to kernel 2 '_Z24block2D_hybrid_coarsen_xffPfS_iii'
GPGPU-Sim uArch: Shader 27 bind to kernel 2 '_Z24block2D_hybrid_coarsen_xffPfS_iii'
GPGPU-Sim uArch: Shader 0 bind to kernel 2 '_Z24block2D_hybrid_coarsen_xffPfS_iii'
GPGPU-Sim uArch: Shader 1 bind to kernel 2 '_Z24block2D_hybrid_coarsen_xffPfS_iii'
GPGPU-Sim uArch: Shader 2 bind to kernel 2 '_Z24block2D_hybrid_coarsen_xffPfS_iii'
GPGPU-Sim uArch: Shader 3 bind to kernel 2 '_Z24block2D_hybrid_coarsen_xffPfS_iii'
GPGPU-Sim uArch: Shader 4 bind to kernel 2 '_Z24block2D_hybrid_coarsen_xffPfS_iii'
GPGPU-Sim uArch: Shader 5 bind to kernel 2 '_Z24block2D_hybrid_coarsen_xffPfS_iii'
GPGPU-Sim uArch: Shader 6 bind to kernel 2 '_Z24block2D_hybrid_coarsen_xffPfS_iii'
GPGPU-Sim uArch: Shader 7 bind to kernel 2 '_Z24block2D_hybrid_coarsen_xffPfS_iii'
GPGPU-Sim uArch: Shader 8 bind to kernel 2 '_Z24block2D_hybrid_coarsen_xffPfS_iii'
Destroy streams for kernel 2: size 0
kernel_name = _Z24block2D_hybrid_coarsen_xffPfS_iii 
kernel_launch_uid = 2 
gpu_sim_cycle = 65990
gpu_sim_insn = 28848876
gpu_ipc =     437.1704
gpu_tot_sim_cycle = 3130002
gpu_tot_sim_insn = 57697752
gpu_tot_ipc =      18.4338
gpu_tot_issued_cta = 128
max_total_param_size = 0
gpu_stall_dramfull = 0
gpu_stall_icnt2sh    = 787
partiton_reqs_in_parallel = 1451780
partiton_reqs_in_parallel_total    = 57633664
partiton_level_parallism =      22.0000
partiton_level_parallism_total  =      18.8771
partiton_reqs_in_parallel_util = 1451780
partiton_reqs_in_parallel_util_total    = 57633664
gpu_sim_cycle_parition_util = 65990
gpu_tot_sim_cycle_parition_util    = 2619712
partiton_level_parallism_util =      22.0000
partiton_level_parallism_util_total  =      22.0000
partiton_replys_in_parallel = 46504
partiton_replys_in_parallel_total    = 47008
L2_BW  =      66.7955 GB/Sec
L2_BW_total  =       2.8318 GB/Sec
gpu_total_sim_rate=9295

========= Core cache stats =========
L1I_cache:
	L1I_total_cache_accesses = 1158456
	L1I_total_cache_misses = 2440
	L1I_total_cache_miss_rate = 0.0021
	L1I_total_cache_pending_hits = 0
	L1I_total_cache_reservation_fails = 0
L1D_cache:
	L1D_cache_core[0]: Access = 0, Miss = 0, Miss_rate = -nan, Pending_hits = 0, Reservation_fails = 0
	L1D_cache_core[1]: Access = 0, Miss = 0, Miss_rate = -nan, Pending_hits = 0, Reservation_fails = 0
	L1D_cache_core[2]: Access = 0, Miss = 0, Miss_rate = -nan, Pending_hits = 0, Reservation_fails = 0
	L1D_cache_core[3]: Access = 0, Miss = 0, Miss_rate = -nan, Pending_hits = 0, Reservation_fails = 0
	L1D_cache_core[4]: Access = 0, Miss = 0, Miss_rate = -nan, Pending_hits = 0, Reservation_fails = 0
	L1D_cache_core[5]: Access = 0, Miss = 0, Miss_rate = -nan, Pending_hits = 0, Reservation_fails = 0
	L1D_cache_core[6]: Access = 0, Miss = 0, Miss_rate = -nan, Pending_hits = 0, Reservation_fails = 0
	L1D_cache_core[7]: Access = 0, Miss = 0, Miss_rate = -nan, Pending_hits = 0, Reservation_fails = 0
	L1D_cache_core[8]: Access = 0, Miss = 0, Miss_rate = -nan, Pending_hits = 0, Reservation_fails = 0
	L1D_cache_core[9]: Access = 0, Miss = 0, Miss_rate = -nan, Pending_hits = 0, Reservation_fails = 0
	L1D_cache_core[10]: Access = 0, Miss = 0, Miss_rate = -nan, Pending_hits = 0, Reservation_fails = 0
	L1D_cache_core[11]: Access = 0, Miss = 0, Miss_rate = -nan, Pending_hits = 0, Reservation_fails = 0
	L1D_cache_core[12]: Access = 0, Miss = 0, Miss_rate = -nan, Pending_hits = 0, Reservation_fails = 0
	L1D_cache_core[13]: Access = 0, Miss = 0, Miss_rate = -nan, Pending_hits = 0, Reservation_fails = 0
	L1D_cache_core[14]: Access = 0, Miss = 0, Miss_rate = -nan, Pending_hits = 0, Reservation_fails = 0
	L1D_cache_core[15]: Access = 0, Miss = 0, Miss_rate = -nan, Pending_hits = 0, Reservation_fails = 0
	L1D_cache_core[16]: Access = 0, Miss = 0, Miss_rate = -nan, Pending_hits = 0, Reservation_fails = 0
	L1D_cache_core[17]: Access = 0, Miss = 0, Miss_rate = -nan, Pending_hits = 0, Reservation_fails = 0
	L1D_cache_core[18]: Access = 0, Miss = 0, Miss_rate = -nan, Pending_hits = 0, Reservation_fails = 0
	L1D_cache_core[19]: Access = 0, Miss = 0, Miss_rate = -nan, Pending_hits = 0, Reservation_fails = 0
	L1D_cache_core[20]: Access = 0, Miss = 0, Miss_rate = -nan, Pending_hits = 0, Reservation_fails = 0
	L1D_cache_core[21]: Access = 0, Miss = 0, Miss_rate = -nan, Pending_hits = 0, Reservation_fails = 0
	L1D_cache_core[22]: Access = 0, Miss = 0, Miss_rate = -nan, Pending_hits = 0, Reservation_fails = 0
	L1D_cache_core[23]: Access = 0, Miss = 0, Miss_rate = -nan, Pending_hits = 0, Reservation_fails = 0
[...]
F:  2448216----T:  2450821 	 St: c018e000 Sz: 4096 	 Sm: 0 	 T: memcpy_h2d(1.758947)
F:  2450821----T:  2453426 	 St: c017d000 Sz: 4096 	 Sm: 0 	 T: memcpy_h2d(1.758947)
F:  2453426----T:  2456031 	 St: c036c000 Sz: 4096 	 Sm: 0 	 T: memcpy_h2d(1.758947)
F:  2456031----T:  2458636 	 St: c018c000 Sz: 4096 	 Sm: 0 	 T: memcpy_h2d(1.758947)
F:  2458636----T:  2461241 	 St: c0190000 Sz: 4096 	 Sm: 0 	 T: memcpy_h2d(1.758947)
F:  2461241----T:  2463846 	 St: c0186000 Sz: 4096 	 Sm: 0 	 T: memcpy_h2d(1.758947)
F:  2463846----T:  2466451 	 St: c01a4000 Sz: 4096 	 Sm: 0 	 T: memcpy_h2d(1.758947)
F:  2466451----T:  2469056 	 St: c0193000 Sz: 4096 	 Sm: 0 	 T: memcpy_h2d(1.758947)
F:  2469056----T:  2471661 	 St: c0191000 Sz: 4096 	 Sm: 0 	 T: memcpy_h2d(1.758947)
F:  2471661----T:  2474266 	 St: c0347000 Sz: 4096 	 Sm: 0 	 T: memcpy_h2d(1.758947)
F:  2474266----T:  2476871 	 St: c01c6000 Sz: 4096 	 Sm: 0 	 T: memcpy_h2d(1.758947)
F:  2476871----T:  2479476 	 St: c0177000 Sz: 4096 	 Sm: 0 	 T: memcpy_h2d(1.758947)
F:  2479476----T:  2482081 	 St: c03aa000 Sz: 4096 	 Sm: 0 	 T: memcpy_h2d(1.758947)
F:  2482081----T:  2484686 	 St: c01ca000 Sz: 4096 	 Sm: 0 	 T: memcpy_h2d(1.758947)
F:  2484686----T:  2487291 	 St: c03a9000 Sz: 4096 	 Sm: 0 	 T: memcpy_h2d(1.758947)
F:  2487291----T:  2489896 	 St: c01c9000 Sz: 4096 	 Sm: 0 	 T: memcpy_h2d(1.758947)
F:  2489896----T:  2492501 	 St: c0368000 Sz: 4096 	 Sm: 0 	 T: memcpy_h2d(1.758947)
F:  2492501----T:  2495106 	 St: c0188000 Sz: 4096 	 Sm: 0 	 T: memcpy_h2d(1.758947)
F:  2495106----T:  2497711 	 St: c016b000 Sz: 4096 	 Sm: 0 	 T: memcpy_h2d(1.758947)
F:  2497711----T:  2500316 	 St: c035f000 Sz: 4096 	 Sm: 0 	 T: memcpy_h2d(1.758947)
F:  2500316----T:  2502921 	 St: c017f000 Sz: 4096 	 Sm: 0 	 T: memcpy_h2d(1.758947)
F:  2502921----T:  2505526 	 St: c0375000 Sz: 4096 	 Sm: 0 	 T: memcpy_h2d(1.758947)
F:  2505526----T:  2508131 	 St: c0195000 Sz: 4096 	 Sm: 0 	 T: memcpy_h2d(1.758947)
F:  2508131----T:  2510736 	 St: c0371000 Sz: 4096 	 Sm: 0 	 T: memcpy_h2d(1.758947)
F:  2510736----T:  2513341 	 St: c0187000 Sz: 4096 	 Sm: 0 	 T: memcpy_h2d(1.758947)
F:  2513341----T:  2515946 	 St: c0382000 Sz: 4096 	 Sm: 0 	 T: memcpy_h2d(1.758947)
F:  2515946----T:  2518551 	 St: c01a2000 Sz: 4096 	 Sm: 0 	 T: memcpy_h2d(1.758947)
F:  2518551----T:  2521156 	 St: c019e000 Sz: 4096 	 Sm: 0 	 T: memcpy_h2d(1.758947)
F:  2521156----T:  2523761 	 St: c018d000 Sz: 4096 	 Sm: 0 	 T: memcpy_h2d(1.758947)
F:  2523761----T:  2526366 	 St: c019c000 Sz: 4096 	 Sm: 0 	 T: memcpy_h2d(1.758947)
F:  2526366----T:  2528971 	 St: c01a0000 Sz: 4096 	 Sm: 0 	 T: memcpy_h2d(1.758947)
F:  2528971----T:  2531576 	 St: c01a6000 Sz: 4096 	 Sm: 0 	 T: memcpy_h2d(1.758947)
F:  2531576----T:  2534181 	 St: c03a4000 Sz: 4096 	 Sm: 0 	 T: memcpy_h2d(1.758947)
F:  2534181----T:  2536786 	 St: c01c4000 Sz: 4096 	 Sm: 0 	 T: memcpy_h2d(1.758947)
F:  2536786----T:  2539391 	 St: c01b3000 Sz: 4096 	 Sm: 0 	 T: memcpy_h2d(1.758947)
F:  2539391----T:  2541996 	 St: c0381000 Sz: 4096 	 Sm: 0 	 T: memcpy_h2d(1.758947)
F:  2541996----T:  2544601 	 St: c01a1000 Sz: 4096 	 Sm: 0 	 T: memcpy_h2d(1.758947)
F:  2544601----T:  2547206 	 St: c03ba000 Sz: 4096 	 Sm: 0 	 T: memcpy_h2d(1.758947)
F:  2547206----T:  2549811 	 St: c03b9000 Sz: 4096 	 Sm: 0 	 T: memcpy_h2d(1.758947)
F:  2549811----T:  2552416 	 St: c03ea000 Sz: 4096 	 Sm: 0 	 T: memcpy_h2d(1.758947)
F:  2552416----T:  2555021 	 St: c03d9000 Sz: 4096 	 Sm: 0 	 T: memcpy_h2d(1.758947)
F:  2555021----T:  2557626 	 St: c0378000 Sz: 4096 	 Sm: 0 	 T: memcpy_h2d(1.758947)
F:  2557626----T:  2560231 	 St: c01cf000 Sz: 4096 	 Sm: 0 	 T: memcpy_h2d(1.758947)
F:  2560231----T:  2562836 	 St: c0198000 Sz: 4096 	 Sm: 0 	 T: memcpy_h2d(1.758947)
F:  2562836----T:  2565441 	 St: c035b000 Sz: 4096 	 Sm: 0 	 T: memcpy_h2d(1.758947)
F:  2565441----T:  2568046 	 St: c017b000 Sz: 4096 	 Sm: 0 	 T: memcpy_h2d(1.758947)
F:  2568046----T:  2570651 	 St: c03ce000 Sz: 4096 	 Sm: 0 	 T: memcpy_h2d(1.758947)
F:  2570651----T:  2573256 	 St: c036f000 Sz: 4096 	 Sm: 0 	 T: memcpy_h2d(1.758947)
F:  2573256----T:  2575861 	 St: c018f000 Sz: 4096 	 Sm: 0 	 T: memcpy_h2d(1.758947)
F:  2575861----T:  2578466 	 St: c0385000 Sz: 4096 	 Sm: 0 	 T: memcpy_h2d(1.758947)
F:  2578466----T:  2581071 	 St: c01a5000 Sz: 4096 	 Sm: 0 	 T: memcpy_h2d(1.758947)
F:  2581071----T:  2583676 	 St: c0377000 Sz: 4096 	 Sm: 0 	 T: memcpy_h2d(1.758947)
F:  2583676----T:  2586281 	 St: c0197000 Sz: 4096 	 Sm: 0 	 T: memcpy_h2d(1.758947)
F:  2586281----T:  2588886 	 St: c0392000 Sz: 4096 	 Sm: 0 	 T: memcpy_h2d(1.758947)
F:  2588886----T:  2591491 	 St: c01b2000 Sz: 4096 	 Sm: 0 	 T: memcpy_h2d(1.758947)
F:  2591491----T:  2594096 	 St: c037d000 Sz: 4096 	 Sm: 0 	 T: memcpy_h2d(1.758947)
F:  2594096----T:  2596701 	 St: c01ae000 Sz: 4096 	 Sm: 0 	 T: memcpy_h2d(1.758947)
F:  2596701----T:  2599306 	 St: c019d000 Sz: 4096 	 Sm: 0 	 T: memcpy_h2d(1.758947)
F:  2599306----T:  2601911 	 St: c03eb000 Sz: 4096 	 Sm: 0 	 T: memcpy_h2d(1.758947)
F:  2601911----T:  2604516 	 St: c039c000 Sz: 4096 	 Sm: 0 	 T: memcpy_h2d(1.758947)
F:  2604516----T:  2607121 	 St: c0390000 Sz: 4096 	 Sm: 0 	 T: memcpy_h2d(1.758947)
F:  2607121----T:  2609726 	 St: c03fd000 Sz: 4096 	 Sm: 0 	 T: memcpy_h2d(1.758947)
F:  2609726----T:  2612331 	 St: c01b0000 Sz: 4096 	 Sm: 0 	 T: memcpy_h2d(1.758947)
F:  2612331----T:  2614936 	 St: c01fe000 Sz: 4096 	 Sm: 0 	 T: memcpy_h2d(1.758947)
F:  2614936----T:  2617541 	 St: c01b6000 Sz: 4096 	 Sm: 0 	 T: memcpy_h2d(1.758947)
F:  2617541----T:  2620146 	 St: c03b4000 Sz: 4096 	 Sm: 0 	 T: memcpy_h2d(1.758947)
F:  2620146----T:  2622751 	 St: c019b000 Sz: 4096 	 Sm: 0 	 T: memcpy_h2d(1.758947)
F:  2622751----T:  2625356 	 St: c03a3000 Sz: 4096 	 Sm: 0 	 T: memcpy_h2d(1.758947)
F:  2625356----T:  2627961 	 St: c03c3000 Sz: 4096 	 Sm: 0 	 T: memcpy_h2d(1.758947)
F:  2627961----T:  2630566 	 St: c01bf000 Sz: 4096 	 Sm: 0 	 T: memcpy_h2d(1.758947)
F:  2630566----T:  2633171 	 St: c01f4000 Sz: 4096 	 Sm: 0 	 T: memcpy_h2d(1.758947)
F:  2633171----T:  2635776 	 St: c03e3000 Sz: 4096 	 Sm: 0 	 T: memcpy_h2d(1.758947)
F:  2635776----T:  2638381 	 St: c0391000 Sz: 4096 	 Sm: 0 	 T: memcpy_h2d(1.758947)
F:  2638381----T:  2640986 	 St: c01b1000 Sz: 4096 	 Sm: 0 	 T: memcpy_h2d(1.758947)
F:  2640986----T:  2643591 	 St: c0388000 Sz: 4096 	 Sm: 0 	 T: memcpy_h2d(1.758947)
F:  2643591----T:  2646196 	 St: c01b8000 Sz: 4096 	 Sm: 0 	 T: memcpy_h2d(1.758947)
F:  2646196----T:  2648801 	 St: c018b000 Sz: 4096 	 Sm: 0 	 T: memcpy_h2d(1.758947)
F:  2648801----T:  2651406 	 St: c01bd000 Sz: 4096 	 Sm: 0 	 T: memcpy_h2d(1.758947)
F:  2651406----T:  2654011 	 St: c019f000 Sz: 4096 	 Sm: 0 	 T: memcpy_h2d(1.758947)
F:  2654011----T:  2656616 	 St: c03f9000 Sz: 4096 	 Sm: 0 	 T: memcpy_h2d(1.758947)
F:  2656616----T:  2659221 	 St: c0395000 Sz: 4096 	 Sm: 0 	 T: memcpy_h2d(1.758947)
F:  2659221----T:  2661826 	 St: c03b5000 Sz: 4096 	 Sm: 0 	 T: memcpy_h2d(1.758947)
F:  2661826----T:  2664431 	 St: c03c5000 Sz: 4096 	 Sm: 0 	 T: memcpy_h2d(1.758947)
F:  2664431----T:  2667036 	 St: c03d5000 Sz: 4096 	 Sm: 0 	 T: memcpy_h2d(1.758947)
F:  2667036----T:  2669641 	 St: c01c7000 Sz: 4096 	 Sm: 0 	 T: memcpy_h2d(1.758947)
F:  2669641----T:  2672246 	 St: c0387000 Sz: 4096 	 Sm: 0 	 T: memcpy_h2d(1.758947)
F:  2672246----T:  2674851 	 St: c01a7000 Sz: 4096 	 Sm: 0 	 T: memcpy_h2d(1.758947)
F:  2674851----T:  2677456 	 St: c03a2000 Sz: 4096 	 Sm: 0 	 T: memcpy_h2d(1.758947)
F:  2677456----T:  2680061 	 St: c01c2000 Sz: 4096 	 Sm: 0 	 T: memcpy_h2d(1.758947)
F:  2680061----T:  2682666 	 St: c039e000 Sz: 4096 	 Sm: 0 	 T: memcpy_h2d(1.758947)
F:  2682666----T:  2685271 	 St: c03ae000 Sz: 4096 	 Sm: 0 	 T: memcpy_h2d(1.758947)
F:  2685271----T:  2687876 	 St: c039d000 Sz: 4096 	 Sm: 0 	 T: memcpy_h2d(1.758947)
F:  2687876----T:  2690481 	 St: c01ce000 Sz: 4096 	 Sm: 0 	 T: memcpy_h2d(1.758947)
F:  2690481----T:  2693086 	 St: c01cc000 Sz: 4096 	 Sm: 0 	 T: memcpy_h2d(1.758947)
F:  2693086----T:  2695691 	 St: c01c0000 Sz: 4096 	 Sm: 0 	 T: memcpy_h2d(1.758947)
F:  2695691----T:  2698296 	 St: c03a6000 Sz: 4096 	 Sm: 0 	 T: memcpy_h2d(1.758947)
F:  2698296----T:  2700901 	 St: c01d6000 Sz: 4096 	 Sm: 0 	 T: memcpy_h2d(1.758947)
F:  2700901----T:  2703506 	 St: c03a1000 Sz: 4096 	 Sm: 0 	 T: memcpy_h2d(1.758947)
F:  2703506----T:  2706111 	 St: c01c1000 Sz: 4096 	 Sm: 0 	 T: memcpy_h2d(1.758947)
F:  2706111----T:  2708716 	 St: c01f0000 Sz: 4096 	 Sm: 0 	 T: memcpy_h2d(1.758947)
F:  2708716----T:  2711321 	 St: c01c8000 Sz: 4096 	 Sm: 0 	 T: memcpy_h2d(1.758947)
F:  2711321----T:  2713926 	 St: c0200000 Sz: 4096 	 Sm: 0 	 T: memcpy_h2d(1.758947)
F:  2713926----T:  2716531 	 St: c037b000 Sz: 4096 	 Sm: 0 	 T: memcpy_h2d(1.758947)
F:  2716531----T:  2719136 	 St: c038b000 Sz: 4096 	 Sm: 0 	 T: memcpy_h2d(1.758947)
F:  2719136----T:  2721741 	 St: c01bb000 Sz: 4096 	 Sm: 0 	 T: memcpy_h2d(1.758947)
F:  2721741----T:  2724346 	 St: c01cd000 Sz: 4096 	 Sm: 0 	 T: memcpy_h2d(1.758947)
F:  2724346----T:  2726951 	 St: c03cf000 Sz: 4096 	 Sm: 0 	 T: memcpy_h2d(1.758947)
F:  2726951----T:  2729556 	 St: c03bf000 Sz: 4096 	 Sm: 0 	 T: memcpy_h2d(1.758947)
F:  2729556----T:  2732161 	 St: c01df000 Sz: 4096 	 Sm: 0 	 T: memcpy_h2d(1.758947)
F:  2732161----T:  2734766 	 St: c0397000 Sz: 4096 	 Sm: 0 	 T: memcpy_h2d(1.758947)
F:  2734766----T:  2737371 	 St: c01b7000 Sz: 4096 	 Sm: 0 	 T: memcpy_h2d(1.758947)
F:  2737371----T:  2739976 	 St: c01d2000 Sz: 4096 	 Sm: 0 	 T: memcpy_h2d(1.758947)
F:  2739976----T:  2742581 	 St: c03be000 Sz: 4096 	 Sm: 0 	 T: memcpy_h2d(1.758947)
F:  2742581----T:  2745186 	 St: c01de000 Sz: 4096 	 Sm: 0 	 T: memcpy_h2d(1.758947)
F:  2745186----T:  2747791 	 St: c03bc000 Sz: 4096 	 Sm: 0 	 T: memcpy_h2d(1.758947)
F:  2747791----T:  2750396 	 St: c03cc000 Sz: 4096 	 Sm: 0 	 T: memcpy_h2d(1.758947)
F:  2750396----T:  2753001 	 St: c03b0000 Sz: 4096 	 Sm: 0 	 T: memcpy_h2d(1.758947)
F:  2753001----T:  2755606 	 St: c01d0000 Sz: 4096 	 Sm: 0 	 T: memcpy_h2d(1.758947)
F:  2755606----T:  2758211 	 St: c01e6000 Sz: 4096 	 Sm: 0 	 T: memcpy_h2d(1.758947)
F:  2758211----T:  2760816 	 St: c01e1000 Sz: 4096 	 Sm: 0 	 T: memcpy_h2d(1.758947)
F:  2760816----T:  2763421 	 St: c03b8000 Sz: 4096 	 Sm: 0 	 T: memcpy_h2d(1.758947)
F:  2763421----T:  2766026 	 St: c03c8000 Sz: 4096 	 Sm: 0 	 T: memcpy_h2d(1.758947)
F:  2766026----T:  2768631 	 St: c01f8000 Sz: 4096 	 Sm: 0 	 T: memcpy_h2d(1.758947)
F:  2768631----T:  2771236 	 St: c01db000 Sz: 4096 	 Sm: 0 	 T: memcpy_h2d(1.758947)
F:  2771236----T:  2773841 	 St: c03dc000 Sz: 4096 	 Sm: 0 	 T: memcpy_h2d(1.758947)
F:  2773841----T:  2776446 	 St: c03bd000 Sz: 4096 	 Sm: 0 	 T: memcpy_h2d(1.758947)
F:  2776446----T:  2779051 	 St: c01dd000 Sz: 4096 	 Sm: 0 	 T: memcpy_h2d(1.758947)
F:  2779051----T:  2781656 	 St: c020e000 Sz: 4096 	 Sm: 0 	 T: memcpy_h2d(1.758947)
F:  2781656----T:  2784261 	 St: c03df000 Sz: 4096 	 Sm: 0 	 T: memcpy_h2d(1.758947)
F:  2784261----T:  2786866 	 St: c03ef000 Sz: 4096 	 Sm: 0 	 T: memcpy_h2d(1.758947)
F:  2786866----T:  2789471 	 St: c03a7000 Sz: 4096 	 Sm: 0 	 T: memcpy_h2d(1.758947)
F:  2789471----T:  2792076 	 St: c03c7000 Sz: 4096 	 Sm: 0 	 T: memcpy_h2d(1.758947)
F:  2792076----T:  2794681 	 St: c03c2000 Sz: 4096 	 Sm: 0 	 T: memcpy_h2d(1.758947)
F:  2794681----T:  2797286 	 St: c01e2000 Sz: 4096 	 Sm: 0 	 T: memcpy_h2d(1.758947)
F:  2797286----T:  2799891 	 St: c03d7000 Sz: 4096 	 Sm: 0 	 T: memcpy_h2d(1.758947)
F:  2799891----T:  2802496 	 St: c01f7000 Sz: 4096 	 Sm: 0 	 T: memcpy_h2d(1.758947)
F:  2802496----T:  2805101 	 St: c03f6000 Sz: 4096 	 Sm: 0 	 T: memcpy_h2d(1.758947)
F:  2805101----T:  2807706 	 St: c01ee000 Sz: 4096 	 Sm: 0 	 T: memcpy_h2d(1.758947)
F:  2807706----T:  2810311 	 St: c01e0000 Sz: 4096 	 Sm: 0 	 T: memcpy_h2d(1.758947)
F:  2810311----T:  2812916 	 St: c03d6000 Sz: 4096 	 Sm: 0 	 T: memcpy_h2d(1.758947)
F:  2812916----T:  2815521 	 St: c01f6000 Sz: 4096 	 Sm: 0 	 T: memcpy_h2d(1.758947)
F:  2815521----T:  2818126 	 St: c03d1000 Sz: 4096 	 Sm: 0 	 T: memcpy_h2d(1.758947)
F:  2818126----T:  2820731 	 St: c03e1000 Sz: 4096 	 Sm: 0 	 T: memcpy_h2d(1.758947)
F:  2820731----T:  2823336 	 St: c03dd000 Sz: 4096 	 Sm: 0 	 T: memcpy_h2d(1.758947)
F:  2823336----T:  2825941 	 St: c01fd000 Sz: 4096 	 Sm: 0 	 T: memcpy_h2d(1.758947)
F:  2825941----T:  2828546 	 St: c03d2000 Sz: 4096 	 Sm: 0 	 T: memcpy_h2d(1.758947)
F:  2828546----T:  2831151 	 St: c03e7000 Sz: 4096 	 Sm: 0 	 T: memcpy_h2d(1.758947)
F:  2831151----T:  2833756 	 St: c03de000 Sz: 4096 	 Sm: 0 	 T: memcpy_h2d(1.758947)
F:  2833756----T:  2836361 	 St: c03ee000 Sz: 4096 	 Sm: 0 	 T: memcpy_h2d(1.758947)
F:  2836361----T:  2838966 	 St: c03e0000 Sz: 4096 	 Sm: 0 	 T: memcpy_h2d(1.758947)
F:  2838966----T:  2841571 	 St: c03ed000 Sz: 4096 	 Sm: 0 	 T: memcpy_h2d(1.758947)
F:  3064012----T:  3130002 	 	 	 Kl: 2 	 Sm: 0 	 T: kernel_launch(44.557732)
F:  3064396----T:  3067001 	 St: c0202000 Sz: 4096 	 Sm: 0 	 T: memcpy_h2d(1.758947)
F:  3067001----T:  3069606 	 St: c0203000 Sz: 4096 	 Sm: 0 	 T: memcpy_h2d(1.758947)
F:  3069606----T:  3072211 	 St: c0204000 Sz: 4096 	 Sm: 0 	 T: memcpy_h2d(1.758947)
F:  3072211----T:  3074816 	 St: c0206000 Sz: 4096 	 Sm: 0 	 T: memcpy_h2d(1.758947)
F:  3074816----T:  3077421 	 St: c020b000 Sz: 4096 	 Sm: 0 	 T: memcpy_h2d(1.758947)
F:  3077421----T:  3080026 	 St: c020c000 Sz: 4096 	 Sm: 0 	 T: memcpy_h2d(1.758947)
F:  3080026----T:  3082631 	 St: c020d000 Sz: 4096 	 Sm: 0 	 T: memcpy_h2d(1.758947)
F:  3082631----T:  3085236 	 St: c0201000 Sz: 4096 	 Sm: 0 	 T: memcpy_h2d(1.758947)
F:  3085236----T:  3087841 	 St: c0209000 Sz: 4096 	 Sm: 0 	 T: memcpy_h2d(1.758947)
F:  3087841----T:  3090446 	 St: c020a000 Sz: 4096 	 Sm: 0 	 T: memcpy_h2d(1.758947)
F:  3100481----T:  3103086 	 St: c03f5000 Sz: 4096 	 Sm: 0 	 T: memcpy_h2d(1.758947)
F:  3103086----T:  3105691 	 St: c03f0000 Sz: 4096 	 Sm: 0 	 T: memcpy_h2d(1.758947)
F:  3105691----T:  3108296 	 St: c03ff000 Sz: 4096 	 Sm: 0 	 T: memcpy_h2d(1.758947)
F:  3108296----T:  3110901 	 St: c03fe000 Sz: 4096 	 Sm: 0 	 T: memcpy_h2d(1.758947)
F:  3110901----T:  3113506 	 St: c03f3000 Sz: 4096 	 Sm: 0 	 T: memcpy_h2d(1.758947)
F:  3115476----T:  3118081 	 St: c03fb000 Sz: 4096 	 Sm: 0 	 T: memcpy_h2d(1.758947)
F:  3118081----T:  3120686 	 St: c03fc000 Sz: 4096 	 Sm: 0 	 T: memcpy_h2d(1.758947)
F:  3121168----T:  3123773 	 St: c03f1000 Sz: 4096 	 Sm: 0 	 T: memcpy_h2d(1.758947)
F:  3126141----T:  3128746 	 St: c03fa000 Sz: 4096 	 Sm: 0 	 T: memcpy_h2d(1.758947)
F:  3352152----T:  3393615 	 	 	 Kl: 3 	 Sm: 0 	 T: kernel_launch(27.996624)
F:  3615765----T:  3657322 	 	 	 Kl: 4 	 Sm: 0 	 T: kernel_launch(28.060095)
F:  3879472----T:  3920962 	 	 	 Kl: 5 	 Sm: 0 	 T: kernel_launch(28.014854)
F:  4143112----T:  4184851 	 	 	 Kl: 6 	 Sm: 0 	 T: kernel_launch(28.182985)
F:  4407001----T:  4448619 	 	 	 Kl: 7 	 Sm: 0 	 T: kernel_launch(28.101282)
F:  4670769----T:  4710112 	 	 	 Kl: 8 	 Sm: 0 	 T: kernel_launch(26.565159)
F:  4932262----T:  4971152 	 	 	 Kl: 9 	 Sm: 0 	 T: kernel_launch(26.259285)
F:  5193302----T:  5232795 	 	 	 Kl: 10 	 Sm: 0 	 T: kernel_launch(26.666441)
F:  5454945----T:  5493866 	 	 	 Kl: 11 	 Sm: 0 	 T: kernel_launch(26.280216)
F:  5716016----T:  5755317 	 	 	 Kl: 12 	 Sm: 0 	 T: kernel_launch(26.536800)
F:  5977467----T:  6016430 	 	 	 Kl: 13 	 Sm: 0 	 T: kernel_launch(26.308575)
F:  6238580----T:  6277895 	 	 	 Kl: 14 	 Sm: 0 	 T: kernel_launch(26.546253)
F:  6500045----T:  6539054 	 	 	 Kl: 15 	 Sm: 0 	 T: kernel_launch(26.339636)
F:  6761204----T:  6800596 	 	 	 Kl: 16 	 Sm: 0 	 T: kernel_launch(26.598244)
F:  7022746----T:  7061512 	 	 	 Kl: 17 	 Sm: 0 	 T: kernel_launch(26.175556)
F:  7283662----T:  7322776 	 	 	 Kl: 18 	 Sm: 0 	 T: kernel_launch(26.410534)
F:  7544926----T:  7583781 	 	 	 Kl: 19 	 Sm: 0 	 T: kernel_launch(26.235651)
F:  7805931----T:  7844949 	 	 	 Kl: 20 	 Sm: 0 	 T: kernel_launch(26.345713)
F:  8067099----T:  8105921 	 	 	 Kl: 21 	 Sm: 0 	 T: kernel_launch(26.213369)
F:  8328071----T:  8367251 	 	 	 Kl: 22 	 Sm: 0 	 T: kernel_launch(26.455097)
F:  8589401----T:  8628220 	 	 	 Kl: 23 	 Sm: 0 	 T: kernel_launch(26.211344)
F:  8850370----T:  8889647 	 	 	 Kl: 24 	 Sm: 0 	 T: kernel_launch(26.520594)
F:  9111797----T:  9150795 	 	 	 Kl: 25 	 Sm: 0 	 T: kernel_launch(26.332209)
F:  9372945----T:  9411911 	 	 	 Kl: 26 	 Sm: 0 	 T: kernel_launch(26.310600)
F:  9634061----T:  9672831 	 	 	 Kl: 27 	 Sm: 0 	 T: kernel_launch(26.178257)
F:  9894981----T:  9934306 	 	 	 Kl: 28 	 Sm: 0 	 T: kernel_launch(26.553005)
F: 10156456----T: 10195274 	 	 	 Kl: 29 	 Sm: 0 	 T: kernel_launch(26.210669)
F: 10417424----T: 10456626 	 	 	 Kl: 30 	 Sm: 0 	 T: kernel_launch(26.469954)
F: 10678776----T: 10717669 	 	 	 Kl: 31 	 Sm: 0 	 T: kernel_launch(26.261311)
F: 10939819----T: 10978770 	 	 	 Kl: 32 	 Sm: 0 	 T: kernel_launch(26.300472)
F: 11200920----T: 11239641 	 	 	 Kl: 33 	 Sm: 0 	 T: kernel_launch(26.145172)
F: 11461791----T: 11500933 	 	 	 Kl: 34 	 Sm: 0 	 T: kernel_launch(26.429440)
F: 11723083----T: 11761973 	 	 	 Kl: 35 	 Sm: 0 	 T: kernel_launch(26.259285)
F: 11984123----T: 12023150 	 	 	 Kl: 36 	 Sm: 0 	 T: kernel_launch(26.351789)
F: 12245300----T: 12284119 	 	 	 Kl: 37 	 Sm: 0 	 T: kernel_launch(26.211344)
F: 12506269----T: 12545387 	 	 	 Kl: 38 	 Sm: 0 	 T: kernel_launch(26.413235)
F: 12767537----T: 12806390 	 	 	 Kl: 39 	 Sm: 0 	 T: kernel_launch(26.234301)
F: 13028540----T: 13067619 	 	 	 Kl: 40 	 Sm: 0 	 T: kernel_launch(26.386900)
F: 13067619----T: 13070224 	 St: 0 Sz: 4096 	 Sm: 0 	 T: device_sync(1.758947)
F: 13067619----T: 13075859 	 St: 0 Sz: 61440 	 Sm: 0 	 T: device_sync(5.563808)
F: 13078464----T: 13081069 	 St: 0 Sz: 4096 	 Sm: 0 	 T: device_sync(1.758947)
F: 13078464----T: 13086704 	 St: 0 Sz: 61440 	 Sm: 0 	 T: device_sync(5.563808)
F: 13089309----T: 13091914 	 St: 0 Sz: 4096 	 Sm: 0 	 T: device_sync(1.758947)
F: 13089309----T: 13105004 	 St: 0 Sz: 126976 	 Sm: 0 	 T: device_sync(10.597569)
F: 13107609----T: 13110214 	 St: 0 Sz: 4096 	 Sm: 0 	 T: device_sync(1.758947)
F: 13107609----T: 13138332 	 St: 0 Sz: 258048 	 Sm: 0 	 T: device_sync(20.744766)
F: 13140937----T: 13143542 	 St: 0 Sz: 4096 	 Sm: 0 	 T: device_sync(1.758947)
F: 13140937----T: 13201773 	 St: 0 Sz: 520192 	 Sm: 0 	 T: device_sync(41.077652)
F: 13204378----T: 13206983 	 St: 0 Sz: 4096 	 Sm: 0 	 T: device_sync(1.758947)
F: 13204378----T: 13325467 	 St: 0 Sz: 1044480 	 Sm: 0 	 T: device_sync(81.761650)
F: 13328072----T: 13330677 	 St: 0 Sz: 4096 	 Sm: 0 	 T: device_sync(1.758947)
F: 13328072----T: 13336312 	 St: 0 Sz: 61440 	 Sm: 0 	 T: device_sync(5.563808)
F: 13338917----T: 13341522 	 St: 0 Sz: 4096 	 Sm: 0 	 T: device_sync(1.758947)
F: 13338917----T: 13347157 	 St: 0 Sz: 61440 	 Sm: 0 	 T: device_sync(5.563808)
F: 13349762----T: 13352367 	 St: 0 Sz: 4096 	 Sm: 0 	 T: device_sync(1.758947)
F: 13349762----T: 13365457 	 St: 0 Sz: 126976 	 Sm: 0 	 T: device_sync(10.597569)
F: 13368062----T: 13370667 	 St: 0 Sz: 4096 	 Sm: 0 	 T: device_sync(1.758947)
F: 13368062----T: 13398785 	 St: 0 Sz: 258048 	 Sm: 0 	 T: device_sync(20.744766)
F: 13401390----T: 13403995 	 St: 0 Sz: 4096 	 Sm: 0 	 T: device_sync(1.758947)
F: 13401390----T: 13462226 	 St: 0 Sz: 520192 	 Sm: 0 	 T: device_sync(41.077652)
F: 13464831----T: 13467436 	 St: 0 Sz: 4096 	 Sm: 0 	 T: device_sync(1.758947)
F: 13464831----T: 13555792 	 St: 0 Sz: 782336 	 Sm: 0 	 T: device_sync(61.418636)
Tot_prefetch_time: 0(cycle), 0.000000(us)
Tot_kernel_exec_time: 4181619(cycle), 2823.510498(us)
Tot_kernel_exec_time_and_fault_time: 51966084(cycle), 35088.511719(us)
Tot_memcpy_h2d_time: 2667520(cycle), 1801.161377(us)
Tot_memcpy_d2h_time: 0(cycle), 0.000000(us)
Tot_memcpy_time: 2667520(cycle), 1801.161377(us)
Tot_devicesync_time: 490778(cycle), 331.382843(us)
Tot_writeback_time: 0(cycle), 0.000000(us)
Tot_rdma_time: 0(cycle), 0.000000(us)
Tot_memcpy_d2h_sync_wb_time: 490778(cycle), 331.382843(us)
GPGPU-Sim: *** exit detected ***
