

        *** GPGPU-Sim Simulator Version 3.2.2  [build gpgpu-sim_git-commit-031156e66de9d631709a7db882a973ad8f0cec52_modified_1] ***


GPGPU-Sim PTX: simulation mode 0 (can change with PTX_SIM_MODE_FUNC environment variable:
               1=functional simulation only, 0=detailed performance simulator)
GPGPU-Sim: Configuration options:

-network_mode                           1 # Interconnection network mode
-inter_config_file   config_fermi_islip.icnt # Interconnection network config file
-gpgpu_ptx_use_cuobjdump                    1 # Use cuobjdump to extract ptx and sass from binaries
-gpgpu_experimental_lib_support                    0 # Try to extract code from cuda libraries [Broken because of unknown cudaGetExportTable]
-gpgpu_ptx_convert_to_ptxplus                    0 # Convert SASS (native ISA) to ptxplus and run ptxplus
-gpgpu_ptx_force_max_capability                   20 # Force maximum compute capability
-gpgpu_ptx_inst_debug_to_file                    0 # Dump executed instructions' debug information to file
-gpgpu_ptx_inst_debug_file       inst_debug.txt # Executed instructions' debug output file
-gpgpu_ptx_inst_debug_thread_uid                    1 # Thread UID for executed instructions' debug output
-gpgpu_simd_model                       1 # 1 = post-dominator
-gpgpu_shader_core_pipeline              2048:32 # shader core pipeline config, i.e., {<nthread>:<warpsize>}
-gpgpu_tex_cache:l1  16:128:24,L:R:m:N:L,F:128:4,128:2 # per-shader L1 texture cache  (READ-ONLY) config  {<nsets>:<bsize>:<assoc>,<rep>:<wr>:<alloc>:<wr_alloc>,<mshr>:<N>:<merge>,<mq>:<rf>}
-gpgpu_const_cache:l1 128:64:2,L:R:f:N:L,A:2:64,4 # per-shader L1 constant memory cache  (READ-ONLY) config  {<nsets>:<bsize>:<assoc>,<rep>:<wr>:<alloc>:<wr_alloc>,<mshr>:<N>:<merge>,<mq>} 
-gpgpu_cache:il1     8:128:4,L:R:f:N:L,A:2:48,4 # shader L1 instruction cache config  {<nsets>:<bsize>:<assoc>,<rep>:<wr>:<alloc>:<wr_alloc>,<mshr>:<N>:<merge>,<mq>} 
-gpgpu_cache:dl1     64:128:6,L:L:m:N:H,A:128:8,8 # per-shader L1 data cache config  {<nsets>:<bsize>:<assoc>,<rep>:<wr>:<alloc>:<wr_alloc>,<mshr>:<N>:<merge>,<mq> | none}
-gpgpu_cache:dl1PrefL1                 none # per-shader L1 data cache config  {<nsets>:<bsize>:<assoc>,<rep>:<wr>:<alloc>:<wr_alloc>,<mshr>:<N>:<merge>,<mq> | none}
-gpgpu_cache:dl1PrefShared                 none # per-shader L1 data cache config  {<nsets>:<bsize>:<assoc>,<rep>:<wr>:<alloc>:<wr_alloc>,<mshr>:<N>:<merge>,<mq> | none}
-gmem_skip_L1D                          1 # global memory access skip L1D cache (implements -Xptxas -dlcm=cg, default=no skip)
-gpgpu_perfect_mem                      0 # enable perfect memory mode (no cache miss)
-n_regfile_gating_group                    4 # group of lanes that should be read/written together)
-gpgpu_clock_gated_reg_file                    0 # enable clock gated reg file for power calculations
-gpgpu_clock_gated_lanes                    0 # enable clock gated lanes for power calculations
-gpgpu_shader_registers                65536 # Number of registers per shader core. Limits number of concurrent CTAs. (default 8192)
-gpgpu_shader_cta                      32 # Maximum number of concurrent CTAs in shader (default 8)
-gpgpu_num_cta_barriers                   16 # Maximum number of named barriers per CTA (default 16)
-gpgpu_n_clusters                      28 # number of processing clusters
-gpgpu_n_cores_per_cluster                    1 # number of simd cores per cluster
-gpgpu_n_cluster_ejection_buffer_size                    8 # number of packets in ejection buffer
-gpgpu_n_ldst_response_buffer_size                    2 # number of response packets in ld/st unit ejection buffer
-gpgpu_shmem_size                   16384 # Size of shared memory per shader core (default 16kB)
-gpgpu_shmem_size                   98304 # Size of shared memory per shader core (default 16kB)
-gpgpu_shmem_size_PrefL1                16384 # Size of shared memory per shader core (default 16kB)
-gpgpu_shmem_size_PrefShared                16384 # Size of shared memory per shader core (default 16kB)
-gpgpu_shmem_num_banks                   32 # Number of banks in the shared memory in each shader core (default 16)
-gpgpu_shmem_limited_broadcast                    0 # Limit shared memory to do one broadcast per cycle (default on)
-gpgpu_shmem_warp_parts                    1 # Number of portions a warp is divided into for shared memory bank conflict check 
-gpgpu_warpdistro_shader                   -1 # Specify which shader core to collect the warp size distribution from
-gpgpu_warp_issue_shader                    0 # Specify which shader core to collect the warp issue distribution from
-gpgpu_local_mem_map                    1 # Mapping from local memory space address to simulated GPU physical address space (default = enabled)
-gpgpu_num_reg_banks                   32 # Number of register banks (default = 8)
-gpgpu_reg_bank_use_warp_id                    0 # Use warp ID in mapping registers to banks (default = off)
-gpgpu_operand_collector_num_units_sp                   20 # number of collector units (default = 4)
-gpgpu_operand_collector_num_units_sfu                    4 # number of collector units (default = 4)
-gpgpu_operand_collector_num_units_mem                    8 # number of collector units (default = 2)
-gpgpu_operand_collector_num_units_gen                    0 # number of collector units (default = 0)
-gpgpu_operand_collector_num_in_ports_sp                    4 # number of collector unit in ports (default = 1)
-gpgpu_operand_collector_num_in_ports_sfu                    1 # number of collector unit in ports (default = 1)
-gpgpu_operand_collector_num_in_ports_mem                    1 # number of collector unit in ports (default = 1)
-gpgpu_operand_collector_num_in_ports_gen                    0 # number of collector unit in ports (default = 0)
-gpgpu_operand_collector_num_out_ports_sp                    4 # number of collector unit in ports (default = 1)
-gpgpu_operand_collector_num_out_ports_sfu                    1 # number of collector unit in ports (default = 1)
-gpgpu_operand_collector_num_out_ports_mem                    1 # number of collector unit in ports (default = 1)
-gpgpu_operand_collector_num_out_ports_gen                    0 # number of collector unit in ports (default = 0)
-gpgpu_coalesce_arch                   13 # Coalescing arch (default = 13, anything else is off for now)
-gpgpu_num_sched_per_core                    2 # Number of warp schedulers per core
-gpgpu_max_insn_issue_per_warp                    2 # Max number of instructions that can be issued per warp in one cycle by scheduler
-gpgpu_simt_core_sim_order                    1 # Select the simulation order of cores in a cluster (0=Fix, 1=Round-Robin)
-gpgpu_pipeline_widths        4,1,1,4,1,1,6 # Pipeline widths ID_OC_SP,ID_OC_SFU,ID_OC_MEM,OC_EX_SP,OC_EX_SFU,OC_EX_MEM,EX_WB
-gpgpu_num_sp_units                     4 # Number of SP units (default=1)
-gpgpu_num_sfu_units                    1 # Number of SF units (default=1)
-gpgpu_num_mem_units                    1 # Number if ldst units (default=1) WARNING: not hooked up to anything
-gpgpu_scheduler                      gto # Scheduler configuration: < lrr | gto | two_level_active > If two_level_active:<num_active_warps>:<inner_prioritization>:<outer_prioritization>For complete list of prioritization values see shader.h enum scheduler_prioritization_typeDefault: gto
-gpgpu_concurrent_kernel_sm                    0 # Support concurrent kernels on a SM (default = disabled)
-tlb_size                            4096 # Number of tlb entries per SM.
-gpgpu_dram_scheduler                    1 # 0 = fifo, 1 = FR-FCFS (defaul)
-gpgpu_dram_partition_queues              8:8:8:8 # i2$:$2d:d2$:$2i
-l2_ideal                               0 # Use a ideal L2 cache that always hit
-gpgpu_cache:dl2     64:128:16,L:B:m:W:L,A:1024:1024,4:0,32 # unified banked L2 data cache config  {<nsets>:<bsize>:<assoc>,<rep>:<wr>:<alloc>:<wr_alloc>,<mshr>:<N>:<merge>,<mq>}
-gpgpu_cache:dl2_texture_only                    0 # L2 cache used for texture only
-gpgpu_n_mem                           11 # number of memory modules (e.g. memory controllers) in gpu
-gpgpu_n_sub_partition_per_mchannel                    2 # number of memory subpartition in each memory module
-gpgpu_n_mem_per_ctrlr                    1 # number of memory chips per memory controller
-gpgpu_memlatency_stat                   14 # track and display latency statistics 0x2 enables MC, 0x4 enables queue logs
-gpgpu_frfcfs_dram_sched_queue_size                   64 # 0 = unlimited (default); # entries per chip
-gpgpu_dram_return_queue_size                  116 # 0 = unlimited (default); # entries per chip
-gpgpu_dram_buswidth                    4 # default = 4 bytes (8 bytes per cycle at DDR)
-gpgpu_dram_burst_length                    8 # Burst length of each DRAM request (default = 4 data bus cycle)
-dram_data_command_freq_ratio                    4 # Frequency ratio between DRAM data bus and command bus (default = 2 times, i.e. DDR)
-gpgpu_dram_timing_opt nbk=16:CCD=2:RRD=6:RCD=12:RAS=28:RP=12:RC=40: CL=12:WL=4:CDLR=5:WR=12:nbkgrp=1:CCDL=0:RTPL=0 # DRAM timing parameters = {nbk:tCCD:tRRD:tRCD:tRAS:tRP:tRC:CL:WL:tCDLR:tWR:nbkgrp:tCCDL:tRTPL}
-rop_latency                          120 # ROP queue latency (default 85)
-dram_latency                         100 # DRAM latency (default 30)
-gpgpu_mem_addr_mapping dramid@8;00000000.00000000.00000000.00000000.0000RRRR.RRRRRRRR.RBBBCCCC.BCCSSSSS # mapping memory address to dram model {dramid@<start bit>;<memory address map>}
-gpgpu_mem_addr_test                    0 # run sweep test to check address mapping for aliased address
-gpgpu_mem_address_mask                    1 # 0 = old addressing mask, 1 = new addressing mask, 2 = new add. mask + flipped bank sel and chip sel bits
-gpuwattch_xml_file  gpuwattch_geforcegtx1080ti.xml # GPUWattch XML file
-power_simulation_enabled                    1 # Turn on power simulator (1=On, 0=Off)
-power_per_cycle_dump                    0 # Dump detailed power output each cycle
-power_trace_enabled                    0 # produce a file for the power trace (1=On, 0=Off)
-power_trace_zlevel                     6 # Compression level of the power trace output log (0=no comp, 9=highest)
-steady_power_levels_enabled                    0 # produce a file for the steady power levels (1=On, 0=Off)
-steady_state_definition                  8:4 # allowed deviation:number of samples
-gpgpu_max_cycle                        0 # terminates gpu simulation early (0 = no limit)
-gpgpu_max_insn                         0 # terminates gpu simulation early (0 = no limit)
-gpgpu_max_cta                          0 # terminates gpu simulation early (0 = no limit)
-gpgpu_runtime_stat                   500 # display runtime statistics such as dram utilization {<freq>:<flag>}
-liveness_message_freq                    1 # Minimum number of seconds between simulation liveness messages (0 = always print)
-gpgpu_flush_l1_cache                    0 # Flush L1 cache at the end of each kernel call
-gpgpu_flush_l2_cache                    0 # Flush L2 cache at the end of each kernel call
-gpgpu_deadlock_detect                    0 # Stop the simulation at deadlock (1=on (default), 0=off)
-gpgpu_ptx_instruction_classification                    0 # if enabled will classify ptx instruction types per kernel (Max 255 kernels now)
-gpgpu_ptx_sim_mode                     0 # Select between Performance (default) or Functional simulation (1)
-gpgpu_clock_domains 1481.0:2962.0:1481.0:2750.0 # Clock Domain Frequencies in MhZ {<Core Clock>:<ICNT Clock>:<L2 Clock>:<DRAM Clock>}
-gpgpu_max_concurrent_kernel                    8 # maximum kernels that can run concurrently on GPU
-gpgpu_cflog_interval                    0 # Interval between each snapshot in control flow logger
-visualizer_enabled                     0 # Turn on visualizer output (1=On, 0=Off)
-visualizer_outputfile                 NULL # Specifies the output log file for visualizer
-visualizer_zlevel                      6 # Compression level of the visualizer output log (0=no comp, 9=highest)
-trace_enabled                          0 # Turn on traces
-trace_components                    none # comma seperated list of traces to enable. Complete list found in trace_streams.tup. Default none
-trace_sampling_core                    0 # The core which is printed using CORE_DPRINTF. Default 0
-trace_sampling_memory_partition                   -1 # The memory partition which is printed using MEMPART_DPRINTF. Default -1 (i.e. all)
-gddr_size                       3.6364MB # Size of GDDR in MB/GB.(GLOBAL_HEAP_START, GLOBAL_HEAP_START + gddr_size) would be used for unmanged memory, (GLOBAL_HEAP_START + gddr_size, GLOBAL_HEAP_START + gddr_size*2) would be used for managed memory. 
-page_table_walk_latency                  100 # Average page table walk latency (in core cycle).
-eviction_policy                        1 # Select page eviction policy
-reserve_accessed_page_percent                   20 # Percentage of accessed pages reserved from eviction in hope that they will be accessed in next iteration.
-percentage_of_free_page_buffer                    0 # Percentage of free page buffer to trigger the page eviction.
-page_size                            4KB # GDDR page size, only 4KB/2MB avaliable.
-pcie_bandwidth                  16.0GB/s # PCI-e bandwidth per direction, in GB/s.
-enable_nvlink                          0 # Enable nvlink 2.0, 150.0GB/s
-enable_rdma                            0 # Enable remote direct memory access
-migrate_threshold                     10 # Access counter threshold for migrating the page from cpu to gpu
-sim_prof_enable                        1 # Enable gpgpu-sim profiler
-hardware_prefetch                      1 # Select gpgpu-sim hardware prefetcher
-hwprefetch_oversub                     1 # Select gpgpu-sim hardware prefetcher under over-subscription
-page_fault_latency                 66645 # Average fault latency (in core cycle).
-enable_accurate_simulation                    0 # Enable page fault functional simulation.
-enable_ptx_file_line_stats                    1 # Turn on PTX source line statistic profiling. (1 = On)
-ptx_line_stats_filename gpgpu_inst_stats.txt # Output file for PTX source line statistics.
-gpgpu_kernel_launch_latency               222150 # Kernel launch latency in cycles. Default: 0
-gpgpu_cdp_enabled                      0 # Turn on CDP
-save_embedded_ptx                      0 # saves ptx files embedded in binary as <n>.ptx
-keep                                   0 # keep intermediate files created by GPGPU-Sim when interfacing with external programs
-gpgpu_ptx_save_converted_ptxplus                    0 # Saved converted ptxplus to a file
-ptx_opcode_latency_int         4,13,4,5,145 # Opcode latencies for integers <ADD,MAX,MUL,MAD,DIV>Default 1,1,19,25,145
-ptx_opcode_latency_fp          4,13,4,5,39 # Opcode latencies for single precision floating points <ADD,MAX,MUL,MAD,DIV>Default 1,1,1,1,30
-ptx_opcode_latency_dp         8,19,8,8,330 # Opcode latencies for double precision floating points <ADD,MAX,MUL,MAD,DIV>Default 8,8,8,8,335
-ptx_opcode_initiation_int            1,2,2,2,8 # Opcode initiation intervals for integers <ADD,MAX,MUL,MAD,DIV>Default 1,1,4,4,32
-ptx_opcode_initiation_fp            1,2,1,1,4 # Opcode initiation intervals for single precision floating points <ADD,MAX,MUL,MAD,DIV>Default 1,1,1,1,5
-ptx_opcode_initiation_dp          1,2,1,1,130 # Opcode initiation intervals for double precision floating points <ADD,MAX,MUL,MAD,DIV>Default 8,8,8,8,130
-cdp_latency         7200,8000,100,12000,1600 # CDP API latency <cudaStreamCreateWithFlags, cudaGetParameterBufferV2_init_perWarp, cudaGetParameterBufferV2_perKernel, cudaLaunchDeviceV2_init_perWarp, cudaLaunchDevicV2_perKernel>Default 7200,8000,100,12000,1600
DRAM Timing Options:
nbk                                    16 # number of banks
CCD                                     2 # column to column delay
RRD                                     6 # minimal delay between activation of rows in different banks
RCD                                    12 # row to column delay
RAS                                    28 # time needed to activate row
RP                                     12 # time needed to precharge (deactivate) row
RC                                     40 # row cycle time
CDLR                                    5 # switching from write to read (changes tWTR)
WR                                     12 # last data-in to row precharge
CL                                     12 # CAS latency
WL                                      4 # Write latency
nbkgrp                                  1 # number of bank groups
CCDL                                    0 # column to column delay between accesses to different bank groups
RTPL                                    0 # read to precharge delay between accesses to different bank groups
Total number of memory sub partition = 22
addr_dec_mask[CHIP]  = 0000000000000000 	high:64 low:0
addr_dec_mask[BK]    = 0000000000007080 	high:15 low:7
addr_dec_mask[ROW]   = 000000000fff8000 	high:28 low:15
addr_dec_mask[COL]   = 0000000000000f7f 	high:12 low:0
addr_dec_mask[BURST] = 000000000000001f 	high:5 low:0
sub_partition_id_mask = 0000000000000080
GPGPU-Sim uArch: clock freqs: 1481000000.000000:2962000000.000000:1481000000.000000:2750000000.000000
GPGPU-Sim uArch: clock periods: 0.00000000067521944632:0.00000000033760972316:0.00000000067521944632:0.00000000036363636364
*** Initializing Memory Statistics ***
GPGPU-Sim uArch: interconnect node map (shaderID+MemID to icntID)
GPGPU-Sim uArch: Memory nodes ID start from index: 28
GPGPU-Sim uArch:    0   1   2   3   4   5   6
GPGPU-Sim uArch:    7   8   9  10  11  12  13
GPGPU-Sim uArch:   14  15  16  17  18  19  20
GPGPU-Sim uArch:   21  22  23  24  25  26  27
GPGPU-Sim uArch:   28  29  30  31  32  33  34
GPGPU-Sim uArch:   35  36  37  38  39  40  41
GPGPU-Sim uArch:   42  43  44  45  46  47  48
GPGPU-Sim uArch:   49
GPGPU-Sim uArch: interconnect node reverse map (icntID to shaderID+MemID)
GPGPU-Sim uArch: Memory nodes start from ID: 28
GPGPU-Sim uArch:    0   1   2   3   4   5   6
GPGPU-Sim uArch:    7   8   9  10  11  12  13
GPGPU-Sim uArch:   14  15  16  17  18  19  20
GPGPU-Sim uArch:   21  22  23  24  25  26  27
GPGPU-Sim uArch:   28  29  30  31  32  33  34
GPGPU-Sim uArch:   35  36  37  38  39  40  41
GPGPU-Sim uArch:   42  43  44  45  46  47  48
GPGPU-Sim uArch:   49
30fbfa52b8738d1f795d2078bb40b83a  /home/gpuser/Desktop/gpgpu-sim_UVMSmart/benchmarks/Managed/stencil/main
GPGPU-Sim uArch: performance model initialization complete.
GPGPU-Sim PTX: __cudaRegisterFatBinary, fat_cubin_handle = 1, filename=default
self exe links to: /home/gpuser/Desktop/gpgpu-sim_UVMSmart/benchmarks/Managed/stencil/main
Running md5sum using "md5sum /home/gpuser/Desktop/gpgpu-sim_UVMSmart/benchmarks/Managed/stencil/main "
Parsing file _cuobjdump_complete_output_xCZ0Mv
######### cuobjdump parser ########
## Adding new section ELF
Adding arch: sm_20
Adding identifier: default
## Adding new section ELF
Adding arch: sm_20
Adding identifier: default
## Adding new section PTX
Adding ptx filename: _cuobjdump_1.ptx
Adding arch: sm_20
Adding identifier: default
## Adding new section ELF
Adding arch: sm_20
Adding identifier: default
## Adding new section PTX
Adding ptx filename: _cuobjdump_2.ptx
Adding arch: sm_20
Adding identifier: default
Done parsing!!!
GPGPU-Sim PTX: __cudaRegisterFatBinary, fat_cubin_handle = 2, filename=default
GPGPU-Sim PTX: __cudaRegisterFunction _Z24block2D_hybrid_coarsen_xffPfS_iii : hostFun 0x0x401496, fat_cubin_handle = 2
GPGPU-Sim PTX: allocating shared region for "sh_A0" from 0x0 to 0x0 (shared memory space)
GPGPU-Sim PTX: instruction assembly for function '_Z24block2D_hybrid_coarsen_xffPfS_iii'...   done.
GPGPU-Sim PTX: finding reconvergence points for '_Z24block2D_hybrid_coarsen_xffPfS_iii'...
GPGPU-Sim PTX: Finding dominators for '_Z24block2D_hybrid_coarsen_xffPfS_iii'...
GPGPU-Sim PTX: Finding immediate dominators for '_Z24block2D_hybrid_coarsen_xffPfS_iii'...
GPGPU-Sim PTX: Finding postdominators for '_Z24block2D_hybrid_coarsen_xffPfS_iii'...
GPGPU-Sim PTX: Finding immediate postdominators for '_Z24block2D_hybrid_coarsen_xffPfS_iii'...
GPGPU-Sim PTX: pre-decoding instructions for '_Z24block2D_hybrid_coarsen_xffPfS_iii'...
GPGPU-Sim PTX: reconvergence points for _Z24block2D_hybrid_coarsen_xffPfS_iii...
GPGPU-Sim PTX:  1 (potential) branch divergence @  PC=0x170 (_2.ptx:82) @!%p13 bra BB0_2;
GPGPU-Sim PTX:    immediate post dominator      @  PC=0x200 (_2.ptx:104) mov.f32 %f64, %f69;
GPGPU-Sim PTX:  2 (potential) branch divergence @  PC=0x178 (_2.ptx:83) bra.uni BB0_1;
GPGPU-Sim PTX:    immediate post dominator      @  PC=0x180 (_2.ptx:86) mad.lo.s32 %r33, %r3, %r6, %r1;
GPGPU-Sim PTX:  3 (potential) branch divergence @  PC=0x228 (_2.ptx:109) @!%p16 bra BB0_4;
GPGPU-Sim PTX:    immediate post dominator      @  PC=0x2b0 (_2.ptx:130) mov.f32 %f67, %f68;
GPGPU-Sim PTX:  4 (potential) branch divergence @  PC=0x230 (_2.ptx:110) bra.uni BB0_3;
GPGPU-Sim PTX:    immediate post dominator      @  PC=0x238 (_2.ptx:113) mad.lo.s32 %r58, %r3, %r6, %r2;
GPGPU-Sim PTX:  5 (potential) branch divergence @  PC=0x2d0 (_2.ptx:134) @%p17 bra BB0_33;
GPGPU-Sim PTX:    immediate post dominator      @  PC=0x868 (_2.ptx:370) ret;
GPGPU-Sim PTX:  6 (potential) branch divergence @  PC=0x300 (_2.ptx:143) @!%p13 bra BB0_8;
GPGPU-Sim PTX:    immediate post dominator      @  PC=0x348 (_2.ptx:156) @!%p5 bra BB0_19;
GPGPU-Sim PTX:  7 (potential) branch divergence @  PC=0x308 (_2.ptx:144) bra.uni BB0_7;
GPGPU-Sim PTX:    immediate post dominator      @  PC=0x310 (_2.ptx:147) add.s32 %r75, %r273, 1;
GPGPU-Sim PTX:  8 (potential) branch divergence @  PC=0x348 (_2.ptx:156) @!%p5 bra BB0_19;
GPGPU-Sim PTX:    immediate post dominator      @  PC=0x590 (_2.ptx:251) @!%p16 bra BB0_21;
GPGPU-Sim PTX:  9 (potential) branch divergence @  PC=0x350 (_2.ptx:157) bra.uni BB0_9;
GPGPU-Sim PTX:    immediate post dominator      @  PC=0x358 (_2.ptx:160) add.s32 %r89, %r13, -1;
GPGPU-Sim PTX: 10 (potential) branch divergence @  PC=0x368 (_2.ptx:162) @%p21 bra BB0_11;
GPGPU-Sim PTX:    immediate post dominator      @  PC=0x3e8 (_2.ptx:184) setp.eq.s32%p22, %r15, 0;
GPGPU-Sim PTX: 11 (potential) branch divergence @  PC=0x370 (_2.ptx:163) bra.uni BB0_10;
GPGPU-Sim PTX:    immediate post dominator      @  PC=0x3b8 (_2.ptx:176) shl.b32 %r92, %r11, 1;
GPGPU-Sim PTX: 12 (potential) branch divergence @  PC=0x3b0 (_2.ptx:173) bra.uni BB0_12;
GPGPU-Sim PTX:    immediate post dominator      @  PC=0x3e8 (_2.ptx:184) setp.eq.s32%p22, %r15, 0;
GPGPU-Sim PTX: 13 (potential) branch divergence @  PC=0x3f0 (_2.ptx:185) @%p22 bra BB0_14;
GPGPU-Sim PTX:    immediate post dominator      @  PC=0x470 (_2.ptx:207) setp.eq.s32%p23, %r12, 0;
GPGPU-Sim PTX: 14 (potential) branch divergence @  PC=0x3f8 (_2.ptx:186) bra.uni BB0_13;
GPGPU-Sim PTX:    immediate post dominator      @  PC=0x440 (_2.ptx:199) shl.b32 %r111, %r11, 1;
GPGPU-Sim PTX: 15 (potential) branch divergence @  PC=0x438 (_2.ptx:196) bra.uni BB0_15;
GPGPU-Sim PTX:    immediate post dominator      @  PC=0x470 (_2.ptx:207) setp.eq.s32%p23, %r12, 0;
GPGPU-Sim PTX: 16 (potential) branch divergence @  PC=0x478 (_2.ptx:208) @%p23 bra BB0_17;
GPGPU-Sim PTX:    immediate post dominator      @  PC=0x4f0 (_2.ptx:229) mad.lo.s32 %r149, %r273, %r7, %r3;
GPGPU-Sim PTX: 17 (potential) branch divergence @  PC=0x480 (_2.ptx:209) bra.uni BB0_16;
GPGPU-Sim PTX:    immediate post dominator      @  PC=0x4c8 (_2.ptx:222) shl.b32 %r129, %r11, 1;
GPGPU-Sim PTX: 18 (potential) branch divergence @  PC=0x4c0 (_2.ptx:219) bra.uni BB0_18;
GPGPU-Sim PTX:    immediate post dominator      @  PC=0x4f0 (_2.ptx:229) mad.lo.s32 %r149, %r273, %r7, %r3;
GPGPU-Sim PTX: 19 (potential) branch divergence @  PC=0x590 (_2.ptx:251) @!%p16 bra BB0_21;
GPGPU-Sim PTX:    immediate post dominator      @  PC=0x5d8 (_2.ptx:264) @!%p4 bra BB0_32;
GPGPU-Sim PTX: 20 (potential) branch divergence @  PC=0x598 (_2.ptx:252) bra.uni BB0_20;
GPGPU-Sim PTX:    immediate post dominator      @  PC=0x5a0 (_2.ptx:255) add.s32 %r168, %r273, 1;
GPGPU-Sim PTX: 21 (potential) branch divergence @  PC=0x5d8 (_2.ptx:264) @!%p4 bra BB0_32;
GPGPU-Sim PTX:    immediate post dominator      @  PC=0x820 (_2.ptx:359) bar.sync 0;
GPGPU-Sim PTX: 22 (potential) branch divergence @  PC=0x5e0 (_2.ptx:265) bra.uni BB0_22;
GPGPU-Sim PTX:    immediate post dominator      @  PC=0x5e8 (_2.ptx:268) add.s32 %r183, %r13, -1;
GPGPU-Sim PTX: 23 (potential) branch divergence @  PC=0x5f8 (_2.ptx:270) @%p27 bra BB0_24;
GPGPU-Sim PTX:    immediate post dominator      @  PC=0x678 (_2.ptx:292) setp.eq.s32%p28, %r15, 0;
GPGPU-Sim PTX: 24 (potential) branch divergence @  PC=0x600 (_2.ptx:271) bra.uni BB0_23;
GPGPU-Sim PTX:    immediate post dominator      @  PC=0x648 (_2.ptx:284) shl.b32 %r186, %r11, 1;
GPGPU-Sim PTX: 25 (potential) branch divergence @  PC=0x640 (_2.ptx:281) bra.uni BB0_25;
GPGPU-Sim PTX:    immediate post dominator      @  PC=0x678 (_2.ptx:292) setp.eq.s32%p28, %r15, 0;
GPGPU-Sim PTX: 26 (potential) branch divergence @  PC=0x680 (_2.ptx:293) @%p28 bra BB0_27;
GPGPU-Sim PTX:    immediate post dominator      @  PC=0x700 (_2.ptx:315) shl.b32 %r228, %r11, 1;
GPGPU-Sim PTX: 27 (potential) branch divergence @  PC=0x688 (_2.ptx:294) bra.uni BB0_26;
GPGPU-Sim PTX:    immediate post dominator      @  PC=0x6d0 (_2.ptx:307) shl.b32 %r207, %r11, 1;
GPGPU-Sim PTX: 28 (potential) branch divergence @  PC=0x6c8 (_2.ptx:304) bra.uni BB0_28;
GPGPU-Sim PTX:    immediate post dominator      @  PC=0x700 (_2.ptx:315) shl.b32 %r228, %r11, 1;
GPGPU-Sim PTX: 29 (potential) branch divergence @  PC=0x718 (_2.ptx:318) @%p29 bra BB0_30;
GPGPU-Sim PTX:    immediate post dominator      @  PC=0x788 (_2.ptx:338) mad.lo.s32 %r253, %r273, %r7, %r3;
GPGPU-Sim PTX: 30 (potential) branch divergence @  PC=0x720 (_2.ptx:319) bra.uni BB0_29;
GPGPU-Sim PTX:    immediate post dominator      @  PC=0x768 (_2.ptx:332) mad.lo.s32 %r235, %r228, %r15, %r19;
GPGPU-Sim PTX: 31 (potential) branch divergence @  PC=0x760 (_2.ptx:329) bra.uni BB0_31;
GPGPU-Sim PTX:    immediate post dominator      @  PC=0x788 (_2.ptx:338) mad.lo.s32 %r253, %r273, %r7, %r3;
GPGPU-Sim PTX: 32 (potential) branch divergence @  PC=0x860 (_2.ptx:367) @%p30 bra BB0_6;
GPGPU-Sim PTX:    immediate post dominator      @  PC=0x868 (_2.ptx:370) ret;
GPGPU-Sim PTX: ... end of reconvergence points for _Z24block2D_hybrid_coarsen_xffPfS_iii
GPGPU-Sim PTX: ... done pre-decoding instructions for '_Z24block2D_hybrid_coarsen_xffPfS_iii'.
GPGPU-Sim PTX: finished parsing EMBEDDED .ptx file _2.ptx
Adding _cuobjdump_1.ptx with cubin handle 2
GPGPU-Sim PTX: extracting embedded .ptx to temporary file "_ptx_ClbttJ"
Running: cat _ptx_ClbttJ | sed 's/.version 1.5/.version 1.4/' | sed 's/, texmode_independent//' | sed 's/\(\.extern \.const\[1\] .b8 \w\+\)\[\]/\1\[1\]/' | sed 's/const\[.\]/const\[0\]/g' > _ptx2_NzwZ9W
GPGPU-Sim PTX: generating ptxinfo using "$CUDA_INSTALL_PATH/bin/ptxas --gpu-name=sm_20 -v _ptx2_NzwZ9W --output-file  /dev/null 2> _ptx_ClbttJinfo"
GPGPU-Sim PTX: Kernel '_Z24block2D_hybrid_coarsen_xffPfS_iii' : regs=20, lmem=0, smem=0, cmem=68
GPGPU-Sim PTX: removing ptxinfo using "rm -f _ptx_ClbttJ _ptx2_NzwZ9W _ptx_ClbttJinfo"
GPGPU-Sim PTX: loading globals with explicit initializers... 
GPGPU-Sim PTX: finished loading globals (0 bytes total).
GPGPU-Sim PTX: loading constants with explicit initializers...  done.
CUDA accelerated 7 points stencil codes****
Original version by Li-Wen Chang <lchang20@illinois.edu> and I-Jui Sung<sung10@illinois.edu>
This version maintained by Chris Rodrigues  ***********

GPGPU-Sim PTX: cudaLaunch for 0x0x401496 (mode=performance simulation) on stream 0
GPGPU-Sim PTX: pushing kernel '_Z24block2D_hybrid_coarsen_xffPfS_iii' to stream 0, gridDim= (2,32,1) blockDim = (32,4,1) 
GPGPU-Sim uArch: Shader 1 bind to kernel 1 '_Z24block2D_hybrid_coarsen_xffPfS_iii'
GPGPU-Sim uArch: CTA/core = 16, limited by: threads
GPGPU-Sim uArch: Shader 2 bind to kernel 1 '_Z24block2D_hybrid_coarsen_xffPfS_iii'
GPGPU-Sim uArch: Shader 3 bind to kernel 1 '_Z24block2D_hybrid_coarsen_xffPfS_iii'
GPGPU-Sim uArch: Shader 4 bind to kernel 1 '_Z24block2D_hybrid_coarsen_xffPfS_iii'
GPGPU-Sim uArch: Shader 5 bind to kernel 1 '_Z24block2D_hybrid_coarsen_xffPfS_iii'
GPGPU-Sim uArch: Shader 6 bind to kernel 1 '_Z24block2D_hybrid_coarsen_xffPfS_iii'
GPGPU-Sim uArch: Shader 7 bind to kernel 1 '_Z24block2D_hybrid_coarsen_xffPfS_iii'
GPGPU-Sim uArch: Shader 8 bind to kernel 1 '_Z24block2D_hybrid_coarsen_xffPfS_iii'
GPGPU-Sim uArch: Shader 9 bind to kernel 1 '_Z24block2D_hybrid_coarsen_xffPfS_iii'
GPGPU-Sim uArch: Shader 10 bind to kernel 1 '_Z24block2D_hybrid_coarsen_xffPfS_iii'
GPGPU-Sim uArch: Shader 11 bind to kernel 1 '_Z24block2D_hybrid_coarsen_xffPfS_iii'
GPGPU-Sim uArch: Shader 12 bind to kernel 1 '_Z24block2D_hybrid_coarsen_xffPfS_iii'
GPGPU-Sim uArch: Shader 13 bind to kernel 1 '_Z24block2D_hybrid_coarsen_xffPfS_iii'
GPGPU-Sim uArch: Shader 14 bind to kernel 1 '_Z24block2D_hybrid_coarsen_xffPfS_iii'
GPGPU-Sim uArch: Shader 15 bind to kernel 1 '_Z24block2D_hybrid_coarsen_xffPfS_iii'
GPGPU-Sim uArch: Shader 16 bind to kernel 1 '_Z24block2D_hybrid_coarsen_xffPfS_iii'
GPGPU-Sim uArch: Shader 17 bind to kernel 1 '_Z24block2D_hybrid_coarsen_xffPfS_iii'
GPGPU-Sim uArch: Shader 18 bind to kernel 1 '_Z24block2D_hybrid_coarsen_xffPfS_iii'
GPGPU-Sim uArch: Shader 19 bind to kernel 1 '_Z24block2D_hybrid_coarsen_xffPfS_iii'
GPGPU-Sim uArch: Shader 20 bind to kernel 1 '_Z24block2D_hybrid_coarsen_xffPfS_iii'
GPGPU-Sim uArch: Shader 21 bind to kernel 1 '_Z24block2D_hybrid_coarsen_xffPfS_iii'
GPGPU-Sim uArch: Shader 22 bind to kernel 1 '_Z24block2D_hybrid_coarsen_xffPfS_iii'
GPGPU-Sim uArch: Shader 23 bind to kernel 1 '_Z24block2D_hybrid_coarsen_xffPfS_iii'
GPGPU-Sim uArch: Shader 24 bind to kernel 1 '_Z24block2D_hybrid_coarsen_xffPfS_iii'
GPGPU-Sim uArch: Shader 25 bind to kernel 1 '_Z24block2D_hybrid_coarsen_xffPfS_iii'
GPGPU-Sim uArch: Shader 26 bind to kernel 1 '_Z24block2D_hybrid_coarsen_xffPfS_iii'
GPGPU-Sim uArch: Shader 27 bind to kernel 1 '_Z24block2D_hybrid_coarsen_xffPfS_iii'
GPGPU-Sim uArch: Shader 0 bind to kernel 1 '_Z24block2D_hybrid_coarsen_xffPfS_iii'
Destroy streams for kernel 1: size 0
kernel_name = _Z24block2D_hybrid_coarsen_xffPfS_iii 
kernel_launch_uid = 1 
gpu_sim_cycle = 570329
gpu_sim_insn = 28848876
gpu_ipc =      50.5829
gpu_tot_sim_cycle = 792479
gpu_tot_sim_insn = 28848876
gpu_tot_ipc =      36.4033
gpu_tot_issued_cta = 64
max_total_param_size = 0
gpu_stall_dramfull = 94846
gpu_stall_icnt2sh    = 2168
partiton_reqs_in_parallel = 12452392
partiton_reqs_in_parallel_total    = 0
partiton_level_parallism =      21.8337
partiton_level_parallism_total  =      15.7132
partiton_reqs_in_parallel_util = 12452392
partiton_reqs_in_parallel_util_total    = 0
gpu_sim_cycle_parition_util = 569374
gpu_tot_sim_cycle_parition_util    = 0
partiton_level_parallism_util =      21.8703
partiton_level_parallism_util_total  =      21.8703
partiton_replys_in_parallel = 47008
partiton_replys_in_parallel_total    = 0
L2_BW  =       7.8123 GB/Sec
L2_BW_total  =       5.6224 GB/Sec
gpu_total_sim_rate=16646

========= Core cache stats =========
L1I_cache:
	L1I_total_cache_accesses = 579228
	L1I_total_cache_misses = 3000
	L1I_total_cache_miss_rate = 0.0052
	L1I_total_cache_pending_hits = 0
	L1I_total_cache_reservation_fails = 0
L1D_cache:
	L1D_cache_core[0]: Access = 0, Miss = 0, Miss_rate = -nan, Pending_hits = 0, Reservation_fails = 0
	L1D_cache_core[1]: Access = 0, Miss = 0, Miss_rate = -nan, Pending_hits = 0, Reservation_fails = 0
	L1D_cache_core[2]: Access = 0, Miss = 0, Miss_rate = -nan, Pending_hits = 0, Reservation_fails = 0
	L1D_cache_core[3]: Access = 0, Miss = 0, Miss_rate = -nan, Pending_hits = 0, Reservation_fails = 0
	L1D_cache_core[4]: Access = 0, Miss = 0, Miss_rate = -nan, Pending_hits = 0, Reservation_fails = 0
	L1D_cache_core[5]: Access = 0, Miss = 0, Miss_rate = -nan, Pending_hits = 0, Reservation_fails = 0
	L1D_cache_core[6]: Access = 0, Miss = 0, Miss_rate = -nan, Pending_hits = 0, Reservation_fails = 0
	L1D_cache_core[7]: Access = 0, Miss = 0, Miss_rate = -nan, Pending_hits = 0, Reservation_fails = 0
	L1D_cache_core[8]: Access = 0, Miss = 0, Miss_rate = -nan, Pending_hits = 0, Reservation_fails = 0
	L1D_cache_core[9]: Access = 0, Miss = 0, Miss_rate = -nan, Pending_hits = 0, Reservation_fails = 0
	L1D_cache_core[10]: Access = 0, Miss = 0, Miss_rate = -nan, Pending_hits = 0, Reservation_fails = 0
	L1D_cache_core[11]: Access = 0, Miss = 0, Miss_rate = -nan, Pending_hits = 0, Reservation_fails = 0
	L1D_cache_core[12]: Access = 0, Miss = 0, Miss_rate = -nan, Pending_hits = 0, Reservation_fails = 0
	L1D_cache_core[13]: Access = 0, Miss = 0, Miss_rate = -nan, Pending_hits = 0, Reservation_fails = 0
	L1D_cache_core[14]: Access = 0, Miss = 0, Miss_rate = -nan, Pending_hits = 0, Reservation_fails = 0
	L1D_cache_core[15]: Access = 0, Miss = 0, Miss_rate = -nan, Pending_hits = 0, Reservation_fails = 0
	L1D_cache_core[16]: Access = 0, Miss = 0, Miss_rate = -nan, Pending_hits = 0, Reservation_fails = 0
	L1D_cache_core[17]: Access = 0, Miss = 0, Miss_rate = -nan, Pending_hits = 0, Reservation_fails = 0
	L1D_cache_core[18]: Access = 0, Miss = 0, Miss_rate = -nan, Pending_hits = 0, Reservation_fails = 0
	L1D_cache_core[19]: Access = 0, Miss = 0, Miss_rate = -nan, Pending_hits = 0, Reservation_fails = 0
	L1D_cache_core[20]: Access = 0, Miss = 0, Miss_rate = -nan, Pending_hits = 0, Reservation_fails = 0
	L1D_cache_core[21]: Access = 0, Miss = 0, Miss_rate = -nan, Pending_hits = 0, Reservation_fails = 0
	L1D_cache_core[22]: Access = 0, Miss = 0, Miss_rate = -nan, Pending_hits = 0, Reservation_fails = 0
	L1D_cache_core[23]: Access = 0, Miss = 0, Miss_rate = -nan, Pending_hits = 0, Reservation_fails = 0
	L1D_cache_core[24]: Access = 0, Miss = 0, Miss_rate = -nan, Pending_hits = 0, Reservation_fails = 0
	L1D_cache_core[25]: Access = 0, Miss = 0, Miss_rate = -nan, Pending_hits = 0, Reservation_fails = 0
	L1D_cache_core[26]: Access = 0, Miss = 0, Miss_rate = -nan, Pending_hits = 0, Reservation_fails = 0
	L1D_cache_core[27]: Access = 0, Miss = 0, Miss_rate = -nan, Pending_hits = 0, Reservation_fails = 0
	L1D_total_cache_accesses = 0
	L1D_total_cache_misses = 0
	L1D_total_cache_pending_hits = 0
	L1D_total_cache_reservation_fails = 0
	L1D_cache_data_port_util = 0.000
	L1D_cache_fill_port_util = 0.000
L1C_cache:
	L1C_total_cache_accesses = 1792
	L1C_total_cache_misses = 1632
	L1C_total_cache_miss_rate = 0.9107
	L1C_total_cache_pending_hits = 0
	L1C_total_cache_reservation_fails = 1444
L1T_cache:
	L1T_total_cache_accesses = 0
	L1T_total_cache_misses = 0
	L1T_total_cache_pending_hits = 0
	L1T_total_cache_reservation_fails = 0

Total_core_cache_stats:
	Total_core_cache_stats_breakdown[GLOBAL_ACC_R][HIT] = 0
	Total_core_cache_stats_breakdown[GLOBAL_ACC_R][HIT_RESERVED] = 0
	Total_core_cache_stats_breakdown[GLOBAL_ACC_R][MISS] = 0
	Total_core_cache_stats_breakdown[GLOBAL_ACC_R][RESERVATION_FAIL] = 0
	Total_core_cache_stats_breakdown[LOCAL_ACC_R][HIT] = 0
	Total_core_cache_stats_breakdown[LOCAL_ACC_R][HIT_RESERVED] = 0
	Total_core_cache_stats_breakdown[LOCAL_ACC_R][MISS] = 0
	Total_core_cache_stats_breakdown[LOCAL_ACC_R][RESERVATION_FAIL] = 0
	Total_core_cache_stats_breakdown[CONST_ACC_R][HIT] = 160
	Total_core_cache_stats_breakdown[CONST_ACC_R][HIT_RESERVED] = 0
	Total_core_cache_stats_breakdown[CONST_ACC_R][MISS] = 1632
	Total_core_cache_stats_breakdown[CONST_ACC_R][RESERVATION_FAIL] = 1444
	Total_core_cache_stats_breakdown[TEXTURE_ACC_R][HIT] = 0
	Total_core_cache_stats_breakdown[TEXTURE_ACC_R][HIT_RESERVED] = 0
	Total_core_cache_stats_breakdown[TEXTURE_ACC_R][MISS] = 0
	Total_core_cache_stats_breakdown[TEXTURE_ACC_R][RESERVATION_FAIL] = 0
	Total_core_cache_stats_breakdown[GLOBAL_ACC_W][HIT] = 0
	Total_core_cache_stats_breakdown[GLOBAL_ACC_W][HIT_RESERVED] = 0
	Total_core_cache_stats_breakdown[GLOBAL_ACC_W][MISS] = 0
	Total_core_cache_stats_breakdown[GLOBAL_ACC_W][RESERVATION_FAIL] = 0
	Total_core_cache_stats_breakdown[LOCAL_ACC_W][HIT] = 0
	Total_core_cache_stats_breakdown[LOCAL_ACC_W][HIT_RESERVED] = 0
	Total_core_cache_stats_breakdown[LOCAL_ACC_W][MISS] = 0
	Total_core_cache_stats_breakdown[LOCAL_ACC_W][RESERVATION_FAIL] = 0
	Total_core_cache_stats_breakdown[L1_WRBK_ACC][HIT] = 0
	Total_core_cache_stats_breakdown[L1_WRBK_ACC][HIT_RESERVED] = 0
	Total_core_cache_stats_breakdown[L1_WRBK_ACC][MISS] = 0
	Total_core_cache_stats_breakdown[L1_WRBK_ACC][RESERVATION_FAIL] = 0
	Total_core_cache_stats_breakdown[L2_WRBK_ACC][HIT] = 0
	Total_core_cache_stats_breakdown[L2_WRBK_ACC][HIT_RESERVED] = 0
	Total_core_cache_stats_breakdown[L2_WRBK_ACC][MISS] = 0
	Total_core_cache_stats_breakdown[L2_WRBK_ACC][RESERVATION_FAIL] = 0
	Total_core_cache_stats_breakdown[INST_ACC_R][HIT] = 576228
	Total_core_cache_stats_breakdown[INST_ACC_R][HIT_RESERVED] = 0
	Total_core_cache_stats_breakdown[INST_ACC_R][MISS] = 3000
	Total_core_cache_stats_breakdown[INST_ACC_R][RESERVATION_FAIL] = 0
	Total_core_cache_stats_breakdown[L1_WR_ALLOC_R][HIT] = 0
	Total_core_cache_stats_breakdown[L1_WR_ALLOC_R][HIT_RESERVED] = 0
	Total_core_cache_stats_breakdown[L1_WR_ALLOC_R][MISS] = 0
	Total_core_cache_stats_breakdown[L1_WR_ALLOC_R][RESERVATION_FAIL] = 0
	Total_core_cache_stats_breakdown[L2_WR_ALLOC_R][HIT] = 0
	Total_core_cache_stats_breakdown[L2_WR_ALLOC_R][HIT_RESERVED] = 0
	Total_core_cache_stats_breakdown[L2_WR_ALLOC_R][MISS] = 0
	Total_core_cache_stats_breakdown[L2_WR_ALLOC_R][RESERVATION_FAIL] = 0
	Total_core_cache_stats_breakdown[CONST_ACC_R][TOTAL_ACCESS] = 1792
	Total_core_cache_stats_breakdown[INST_ACC_R][TOTAL_ACCESS] = 579228
Shader 0 warp_id issue ditsribution:
warp_id:
0, 1, 2, 3, 4, 5, 6, 7, 
distro:
4828, 4640, 4648, 4821, 4828, 4643, 4648, 4818, 
gpgpu_n_tot_thrd_icount = 33319424
gpgpu_n_tot_w_icount = 1041232
gpgpu_n_stall_shd_mem = 190600
gpgpu_n_mem_read_local = 0
gpgpu_n_mem_write_local = 0
gpgpu_n_mem_read_global = 31384
gpgpu_n_mem_write_global = 15120
gpgpu_n_mem_texture = 0
gpgpu_n_mem_const = 28
gpgpu_n_load_insn  = 766208
gpgpu_n_store_insn = 476280
gpgpu_n_shmem_insn = 3155288
gpgpu_n_tex_insn = 0
gpgpu_n_const_mem_insn = 0
gpgpu_n_param_mem_insn = 57344
gpgpu_n_shmem_bkconflict = 0
gpgpu_n_cache_bkconflict = 0
gpgpu_n_intrawarp_mshr_merge = 0
gpgpu_n_cmem_portconflict = 1444
gpgpu_stall_shd_mem[c_mem][bk_conf] = 1444
gpgpu_stall_shd_mem[c_mem][mshr_rc] = 0
gpgpu_stall_shd_mem[c_mem][icnt_rc] = 0
gpgpu_stall_shd_mem[c_mem][data_port_stall] = 0
gpgpu_stall_shd_mem[t_mem][mshr_rc] = 0
gpgpu_stall_shd_mem[t_mem][icnt_rc] = 0
gpgpu_stall_shd_mem[t_mem][data_port_stall] = 0
gpgpu_stall_shd_mem[s_mem][bk_conf] = 0
gpgpu_stall_shd_mem[gl_mem][bk_conf] = 0
gpgpu_stall_shd_mem[gl_mem][coal_stall] = 0
gpgpu_stall_shd_mem[gl_mem][data_port_stall] = 0
gpgpu_stall_shd_mem[g_mem_ld][mshr_rc] = 0
gpgpu_stall_shd_mem[g_mem_ld][icnt_rc] = 189156
gpgpu_stall_shd_mem[g_mem_ld][wb_icnt_rc] = 0
gpgpu_stall_shd_mem[g_mem_ld][wb_rsrv_fail] = 0
gpgpu_stall_shd_mem[g_mem_st][mshr_rc] = 0
gpgpu_stall_shd_mem[g_mem_st][icnt_rc] = 0
gpgpu_stall_shd_mem[g_mem_st][wb_icnt_rc] = 0
gpgpu_stall_shd_mem[g_mem_st][wb_rsrv_fail] = 0
gpgpu_stall_shd_mem[l_mem_ld][mshr_rc] = 0
gpgpu_stall_shd_mem[l_mem_ld][icnt_rc] = 0
gpgpu_stall_shd_mem[l_mem_ld][wb_icnt_rc] = 0
gpgpu_stall_shd_mem[l_mem_ld][wb_rsrv_fail] = 0
gpgpu_stall_shd_mem[l_mem_st][mshr_rc] = 0
gpgpu_stall_shd_mem[l_mem_st][icnt_rc] = 0
gpgpu_stall_shd_mem[l_mem_ld][wb_icnt_rc] = 0
gpgpu_stall_shd_mem[l_mem_ld][wb_rsrv_fail] = 0
gpu_reg_bank_conflict_stalls = 0
Warp Occupancy Distribution:
Stall:31270	W0_Idle:8597423	W0_Scoreboard:22402283	W1:60480	W2:0	W3:0	W4:0	W5:0	W6:0	W7:0	W8:0	W9:0	W10:0	W11:0	W12:0	W13:0	W14:0	W15:0	W16:0	W17:0	W18:0	W19:0	W20:0	W21:0	W22:0	W23:0	W24:0	W25:0	W26:0	W27:0	W28:0	W29:0	W30:0	W31:408180	W32:572572
traffic_breakdown_coretomem[CONST_ACC_R] = 224 {8:28,}
traffic_breakdown_coretomem[GLOBAL_ACC_R] = 251072 {8:31384,}
traffic_breakdown_coretomem[GLOBAL_ACC_W] = 2056320 {136:15120,}
traffic_breakdown_coretomem[INST_ACC_R] = 3808 {8:476,}
traffic_breakdown_memtocore[CONST_ACC_R] = 2016 {72:28,}
traffic_breakdown_memtocore[GLOBAL_ACC_R] = 3542464 {40:7560,136:23824,}
traffic_breakdown_memtocore[GLOBAL_ACC_W] = 120960 {8:15120,}
traffic_breakdown_memtocore[INST_ACC_R] = 64736 {136:476,}
maxmrqlatency = 1944 
maxdqlatency = 0 
maxmflatency = 179194 
averagemflatency = 33929 
max_icnt2mem_latency = 178940 
max_icnt2sh_latency = 792478 
mrq_lat_table:14522 	1219 	745 	1330 	1683 	2413 	3760 	6593 	10620 	3689 	68 	0 	0 	0 	0 	0 	0 	0 	0 	0 	0 	0 	0 	0 	0 	0 	0 	0 	0 	0 	0 	0 	
dq_lat_table:0 	0 	0 	0 	0 	0 	0 	0 	0 	0 	0 	0 	0 	0 	0 	0 	0 	0 	0 	0 	0 	0 	0 	0 	0 	0 	0 	0 	0 	0 	0 	0 	
mf_lat_table:0 	0 	0 	0 	0 	0 	0 	22039 	8481 	250 	0 	58 	146 	826 	1386 	5310 	262 	7774 	0 	0 	0 	0 	0 	0 	0 	0 	0 	0 	0 	0 	0 	0 	
icnt2mem_lat_table:0 	0 	22134 	129 	19 	0 	8964 	0 	0 	0 	1 	57 	146 	826 	1386 	5310 	262 	7774 	0 	0 	0 	0 	0 	0 	
icnt2sh_lat_table:0 	0 	25449 	5840 	123 	0 	0 	0 	0 	0 	0 	0 	0 	0 	0 	0 	0 	0 	7084 	8036 	0 	0 	0 	0 	
mf_lat_pw_table:0 	0 	0 	0 	0 	0 	0 	86 	9 	0 	0 	2 	3 	6 	9 	14 	1 	14 	0 	0 	0 	0 	0 	0 	0 	0 	0 	0 	0 	0 	0 	0 	
maximum concurrent accesses to same row:
dram[0]:        32        32        32        32        32        32        32        32        32        32        32        32        32        32        32        32 
dram[1]:        32        32        32        32        32        32        32        32        32        32        32        32        32        32        32        32 
dram[2]:        32        32        32        32        32        32        32        32        32        32        32        32        32        32        32        32 
dram[3]:        32        32        32        32        32        32        32        32        32        32        32        32        32        32        32        32 
dram[4]:        32        32        32        32        32        32        32        32        32        32        32        32        32        32        32        32 
dram[5]:        32        32        32        32        32        32        32        32        32        32        32        32        32        32        32        32 
dram[6]:        32        32        32        32        32        32        32        32        32        32        32        32        32        32        32        32 
dram[7]:        32        32        32        32        32        32        32        32        32        32        32        32        32        32        32        32 
dram[8]:        32        32        32        32        32        32        32        32        32        32        32        32        32        32        32        32 
dram[9]:        32        32        32        32        32        32        32        32        32        32        32        32        32        32        32        32 
dram[10]:        32        32        32        32        32        32        32        32        32        32        32        32        32        32        32        32 
maximum service time to same row:
dram[0]:    149974    149543    147321    146733    153551    152975    152683    152115    151770    151321    151710    151211    150739    150293    150055    149631 
dram[1]:    149938    149520    147375    146811    153575    152979    152660    152173    151901    151366    151688    151135    150701    150198    150064    149543 
dram[2]:    149941    149379    147340    146758    153545    152962    152677    152129    151811    151318    151666    151251    150797    150816    149950    149546 
dram[3]:    149960    149468    147381    146789    153569    152993    152666    152167    151912    151360    151670    151148    150799    150202    150103    149602 
dram[4]:    149957    149479    147340    146760    153569    153518    152728    152183    151829    151337    151637    151131    150805    150320    150028    149548 
dram[5]:    149981    149966    147325    146762    153552    152980    152645    152075    151912    151366    151721    151198    150743    150231    150216    149690 
dram[6]:    149822    149348    147338    146755    153548    152985    152533    152012    151875    151417    151687    151204    150833    150390    149963    149609 
dram[7]:    149966    149540    147329    146752    153558    152999    152665    152339    151788    151327    151795    151315    150804    150325    150120    149638 
dram[8]:    149783    149290    147379    146817    153549    152966    152416    151951    151851    151319    151649    151097    150880    150348    150089    149633 
dram[9]:    149937    149535    147329    146745    153569    153002    152687    152207    151860    151366    151815    151243    150827    150360    150216    149704 
dram[10]:    149288    148738    147377    146815    153560    152991    152488    151966    151913    151381    151678    151685    150846    150261    150136    149592 
average row accesses per activate:
dram[0]: 23.363636 23.272728 20.500000 20.500000 21.818182 21.818182 17.062500 17.062500 23.500000 23.500000 20.571428 20.571428 17.375000 17.375000 21.416666 21.416666 
dram[1]: 23.272728 23.272728 20.500000 20.500000 21.272728 21.272728 23.250000 23.250000 18.799999 20.142857 20.571428 20.571428 17.375000 17.375000 21.416666 23.272728 
dram[2]: 22.909090 22.909090 21.000000 21.000000 21.272728 21.272728 19.928572 23.250000 17.625000 21.692308 19.200001 19.200001 17.375000 17.375000 23.272728 23.272728 
dram[3]: 22.909090 22.909090 21.000000 21.000000 21.272728 21.272728 23.250000 23.250000 20.142857 18.799999 16.941177 19.200001 19.714285 19.714285 23.272728 23.272728 
dram[4]: 22.909090 22.909090 21.000000 21.000000 21.272728 21.272728 19.500000 19.500000 20.571428 20.571428 20.571428 20.571428 17.250000 17.250000 21.416666 21.416666 
dram[5]: 19.384615 19.384615 20.666666 20.666666 21.818182 21.818182 22.750000 22.750000 20.571428 20.571428 19.200001 16.941177 18.400000 19.714285 21.416666 21.416666 
dram[6]: 23.272728 23.272728 17.714285 20.666666 21.818182 21.818182 22.750000 22.750000 20.571428 20.571428 22.153847 22.153847 17.250000 17.250000 20.916666 20.916666 
dram[7]: 19.692308 23.272728 20.583334 20.583334 21.818182 21.818182 22.750000 22.750000 20.571428 18.000000 20.142857 14.842105 16.588236 15.666667 20.916666 20.916666 
dram[8]: 23.272728 23.272728 20.583334 20.583334 21.818182 21.818182 22.916666 22.916666 20.571428 20.571428 18.799999 18.799999 16.588236 17.625000 20.916666 20.916666 
dram[9]: 19.230770 22.727272 20.916666 20.916666 21.818182 21.818182 19.642857 19.642857 22.153847 24.000000 18.799999 18.799999 15.666667 17.625000 20.916666 20.916666 
dram[10]: 22.727272 22.727272 20.916666 20.916666 21.818182 21.818182 23.000000 23.000000 19.200001 19.200001 17.625000 16.588236 15.333333 17.250000 21.416666 21.416666 
average row locality = 46642/2290 = 20.367685
number of total memory accesses made:
dram[0]:         0         0         0         0         0         0         0         0         0         0         0         0         0         0         0         0 
dram[1]:         0         0         0         0         0         0         0         0         0         0         0         0         0         0         0         0 
dram[2]:         0         0         0         0         0         0         0         0         0         0         0         0         0         0         0         0 
dram[3]:         0         0         0         0         0         0         0         0         0         0         0         0         0         0         0         0 
dram[4]:         0         0         0         0         0         0         0         0         0         0         0         0         0         0         0         0 
dram[5]:         0         0         0         0         0         0         0         0         0         0         0         0         0         0         0         0 
dram[6]:         0         0         0         0         0         0         0         0         0         0         0         0         0         0         0         0 
dram[7]:         0         0         0         0         0         0         0         0         0         0         0         0         0         0         0         0 
dram[8]:         0         0         0         0         0         0         0         0         0         0         0         0         0         0         0         0 
dram[9]:         0         0         0         0         0         0         0         0         0         0         0         0         0         0         0         0 
dram[10]:         0         0         0         0         0         0         0         0         0         0         0         0         0         0         0         0 
total accesses: 0
min_bank_accesses = 0!
min_chip_accesses = 0!
number of total read accesses:
dram[0]:       177       176       169       169       160       160       183       183       189       189       192       192       187       187       177       177 
dram[1]:       176       176       169       169       157       157       186       186       189       189       192       192       187       187       177       176 
dram[2]:       174       174       172       172       157       157       186       186       189       189       192       192       187       187       176       176 
dram[3]:       174       174       172       172       157       157       186       186       189       189       192       192       186       186       176       176 
dram[4]:       174       174       172       172       157       157       183       183       192       192       192       192       186       186       177       177 
dram[5]:       174       174       170       170       160       160       183       183       192       192       192       192       186       186       177       177 
dram[6]:       176       176       170       170       160       160       183       183       192       192       192       192       186       186       174       174 
dram[7]:       176       176       169       169       160       160       183       183       192       192       189       189       189       189       174       174 
dram[8]:       176       176       169       169       160       160       184       184       192       192       189       189       189       189       174       174 
dram[9]:       173       173       171       171       160       160       184       184       192       192       189       189       189       189       174       174 
dram[10]:       173       173       171       171       160       160       185       185       192       192       189       189       186       186       177       177 
total reads: 31522
bank skew: 192/157 = 1.22
chip skew: 2868/2864 = 1.00
number of total write accesses:
dram[0]:        80        80        77        77        80        80        90        90        93        93        96        96        91        91        80        80 
dram[1]:        80        80        77        77        77        77        93        93        93        93        96        96        91        91        80        80 
dram[2]:        78        78        80        80        77        77        93        93        93        93        96        96        91        91        80        80 
dram[3]:        78        78        80        80        77        77        93        93        93        93        96        96        90        90        80        80 
dram[4]:        78        78        80        80        77        77        90        90        96        96        96        96        90        90        80        80 
dram[5]:        78        78        78        78        80        80        90        90        96        96        96        96        90        90        80        80 
dram[6]:        80        80        78        78        80        80        90        90        96        96        96        96        90        90        77        77 
dram[7]:        80        80        78        78        80        80        90        90        96        96        93        93        93        93        77        77 
dram[8]:        80        80        78        78        80        80        91        91        96        96        93        93        93        93        77        77 
dram[9]:        77        77        80        80        80        80        91        91        96        96        93        93        93        93        77        77 
dram[10]:        77        77        80        80        80        80        91        91        96        96        93        93        90        90        80        80 
total reads: 15120
bank skew: 96/77 = 1.25
chip skew: 1376/1374 = 1.00
average mf latency per bank:
dram[0]:      29427     26934     39623     36413     46740     39244     44520     33831     31034     30191     33589     32376     34614     32824     35420     27551
dram[1]:      29503     26933     39603     36396     46333     38902     44470     33979     31027     30188     33592     32384     34814     33027     35409     27641
dram[2]:      29075     26911     39546     36310     46318     38886     44443     33967     31050     30192     33588     32379     34798     33015     35661     27748
dram[3]:      29080     26910     39528     36311     46490     39062     44456     33970     31051     30187     33780     32582     35039     33044     35663     27755
dram[4]:      28876     26702     39542     36323     46492     39050     44060     34004     31220     30363     33827     32579     35125     33023     35525     27647
dram[5]:      28872     26693     40151     36633     46909     39264     44072     34010     31216     30361     33829     32574     35094     33074     35537     27662
dram[6]:      29319     26955     40125     36628     46881     39266     43874     33835     31212     30367     33821     32599     35452     33052     35451     27459
dram[7]:      29303     26935     40186     36774     46906     39280     43851     33806     31210     30360     33413     32143     35610     33255     35377     27449
dram[8]:      29316     26949     40173     36766     47739     39237     43917     33505     31213     30359     33401     32145     35391     33232     35384     27449
dram[9]:      28924     26748     40430     37078     47775     39258     43867     33436     31218     30375     33417     32155     35386     33233     35385     27447
dram[10]:      28931     26731     40429     37065     47237     39233     43758     33353     31216     30361     33405     32141     34705     32501     35252     27440
maximum mf latency per bank:
dram[0]:     161847    161476    164504    164113    179182    164054    179148    163444    163218    162963    163377    162932    162199    161831    161818    161612
dram[1]:     161809    161470    164500    164124    179164    164195    179151    163392    163022    162725    163140    162736    162298    162092    161655    161460
dram[2]:     161762    161412    164525    164155    179194    163941    179151    163375    163161    162873    163428    163186    162243    161868    161611    161351
dram[3]:     161741    161129    164486    164102    179161    164247    179151    163334    163200    162807    163063    162590    162560    161974    161641    161229
dram[4]:     161743    161382    164520    164128    179184    163827    179145    177624    163239    162879    163359    162955    162306    161825    161698    161348
dram[5]:     161675    161110    164516    164190    179157    164169    179152    178523    163200    162866    162932    162558    162564    162189    161946    161567
dram[6]:     161989    161767    164568    164155    179182    163891    178953    163582    163192    162899    163326    162972    162176    162122    161628    161376
dram[7]:     161650    161323    164486    164096    179150    164166    179162    163243    163048    162773    163368    162999    162504    162126    161805    161418
dram[8]:     161950    161683    164632    164235    179157    163884    178953    163613    163075    162580    163162    162551    162671    162292    161980    161586
dram[9]:     161563    161261    164565    164133    179153    164240    179147    163454    163247    163012    163450    162988    162473    162071    162003    161634
dram[10]:     161888    161327    164591    164228    179163    163661    178955    163521    163189    162758    163175    162573    162493    161997    161996    161536
Memory Partition 0: 
Cache L2_bank_000:
MSHR contents

Cache L2_bank_001:
MSHR contents

In Dram Latency Queue (total = 0): 
DRAM[0]: 16 bks, busW=4 BL=8 CL=12, tRRD=2 tCCD=6, tRCD=12 tRAS=28 tRP=12 tRC=40
n_cmd=1059016 n_nop=1041650 n_act=209 n_pre=193 n_req=4241 n_rd=11468 n_write=5496 bw_util=0.03204
n_activity=48662 dram_eff=0.6972
bk0: 708a 1044697i bk1: 704a 1045313i bk2: 676a 1044565i bk3: 676a 1044436i bk4: 640a 1043095i bk5: 640a 1043575i bk6: 732a 1043419i bk7: 732a 1043308i bk8: 756a 1043832i bk9: 756a 1043906i bk10: 768a 1042830i bk11: 768a 1042789i bk12: 748a 1043593i bk13: 748a 1043544i bk14: 708a 1045092i bk15: 708a 1044842i 
dram_util_bins: 0 0 0 0 0 0 0 0 0 0
dram_eff_bins: 0 0 0 0 0 0 0 0 0 0
mrqq: max=64 avg=1.28678
Memory Partition 1: 
Cache L2_bank_002:
MSHR contents

Cache L2_bank_003:
MSHR contents

In Dram Latency Queue (total = 0): 
DRAM[1]: 16 bks, busW=4 BL=8 CL=12, tRRD=2 tCCD=6, tRCD=12 tRAS=28 tRP=12 tRC=40
n_cmd=1059016 n_nop=1041668 n_act=204 n_pre=188 n_req=4239 n_rd=11460 n_write=5496 bw_util=0.03202
n_activity=48715 dram_eff=0.6961
bk0: 704a 1045541i bk1: 704a 1045267i bk2: 676a 1044643i bk3: 676a 1044432i bk4: 628a 1044585i bk5: 628a 1044781i bk6: 744a 1043025i bk7: 744a 1043188i bk8: 756a 1043551i bk9: 756a 1043483i bk10: 768a 1043379i bk11: 768a 1043566i bk12: 748a 1043482i bk13: 748a 1043625i bk14: 708a 1045671i bk15: 704a 1045721i 
dram_util_bins: 0 0 0 0 0 0 0 0 0 0
dram_eff_bins: 0 0 0 0 0 0 0 0 0 0
mrqq: max=64 avg=1.2931
Memory Partition 2: 
Cache L2_bank_004:
MSHR contents

Cache L2_bank_005:
MSHR contents

In Dram Latency Queue (total = 0): 
DRAM[2]: 16 bks, busW=4 BL=8 CL=12, tRRD=2 tCCD=6, tRCD=12 tRAS=28 tRP=12 tRC=40
n_cmd=1059016 n_nop=1041650 n_act=207 n_pre=191 n_req=4242 n_rd=11464 n_write=5504 bw_util=0.03204
n_activity=48717 dram_eff=0.6966
bk0: 696a 1045395i bk1: 696a 1045437i bk2: 688a 1043433i bk3: 688a 1043613i bk4: 628a 1044120i bk5: 628a 1043839i bk6: 744a 1043046i bk7: 744a 1042956i bk8: 756a 1043687i bk9: 756a 1043894i bk10: 768a 1042802i bk11: 768a 1042694i bk12: 748a 1043729i bk13: 748a 1043509i bk14: 704a 1045116i bk15: 704a 1045155i 
dram_util_bins: 0 0 0 0 0 0 0 0 0 0
dram_eff_bins: 0 0 0 0 0 0 0 0 0 0
mrqq: max=64 avg=1.2919
Memory Partition 3: 
Cache L2_bank_006:
MSHR contents

Cache L2_bank_007:
MSHR contents

In Dram Latency Queue (total = 0): 
DRAM[3]: 16 bks, busW=4 BL=8 CL=12, tRRD=2 tCCD=6, tRCD=12 tRAS=28 tRP=12 tRC=40
n_cmd=1059016 n_nop=1041674 n_act=203 n_pre=187 n_req=4238 n_rd=11456 n_write=5496 bw_util=0.03201
n_activity=48718 dram_eff=0.6959
bk0: 696a 1045798i bk1: 696a 1045560i bk2: 688a 1044364i bk3: 688a 1043875i bk4: 628a 1044217i bk5: 628a 1044097i bk6: 744a 1043112i bk7: 744a 1042783i bk8: 756a 1043636i bk9: 756a 1043289i bk10: 768a 1043019i bk11: 768a 1043122i bk12: 744a 1044175i bk13: 744a 1044171i bk14: 704a 1045133i bk15: 704a 1045291i 
dram_util_bins: 0 0 0 0 0 0 0 0 0 0
dram_eff_bins: 0 0 0 0 0 0 0 0 0 0
mrqq: max=64 avg=1.29928
Memory Partition 4: 
Cache L2_bank_008:
MSHR contents

Cache L2_bank_009:
MSHR contents

In Dram Latency Queue (total = 0): 
DRAM[4]: 16 bks, busW=4 BL=8 CL=12, tRRD=2 tCCD=6, tRCD=12 tRAS=28 tRP=12 tRC=40
n_cmd=1059016 n_nop=1041656 n_act=208 n_pre=192 n_req=4240 n_rd=11464 n_write=5496 bw_util=0.03203
n_activity=48464 dram_eff=0.6999
bk0: 696a 1045943i bk1: 696a 1045342i bk2: 688a 1043977i bk3: 688a 1043623i bk4: 628a 1044066i bk5: 628a 1044091i bk6: 732a 1043922i bk7: 732a 1043398i bk8: 768a 1042915i bk9: 768a 1043236i bk10: 768a 1043422i bk11: 768a 1043813i bk12: 744a 1044120i bk13: 744a 1043929i bk14: 708a 1045193i bk15: 708a 1045458i 
dram_util_bins: 0 0 0 0 0 0 0 0 0 0
dram_eff_bins: 0 0 0 0 0 0 0 0 0 0
mrqq: max=64 avg=1.29291
Memory Partition 5: 
Cache L2_bank_010:
MSHR contents

Cache L2_bank_011:
MSHR contents
MSHR: tag=0x80791e80, atomic=0 1 entries : 0x7f34935ea8b0 :  mf: uid=644077, sid03:w11, part=5, addr=0x80791e80, load , size=128, unknown  status = IN_PARTITION_DRAM (792478), 

In Dram Latency Queue (total = 0): 
DRAM[5]: 16 bks, busW=4 BL=8 CL=12, tRRD=2 tCCD=6, tRCD=12 tRAS=28 tRP=12 tRC=40
n_cmd=1059016 n_nop=1041640 n_act=209 n_pre=193 n_req=4244 n_rd=11470 n_write=5504 bw_util=0.03206
n_activity=48856 dram_eff=0.6949
bk0: 696a 1045750i bk1: 696a 1045718i bk2: 680a 1044699i bk3: 680a 1044583i bk4: 640a 1043408i bk5: 640a 1043706i bk6: 732a 1043288i bk7: 732a 1042970i bk8: 768a 1043027i bk9: 768a 1042680i bk10: 768a 1042874i bk11: 768a 1042790i bk12: 744a 1043909i bk13: 742a 1043891i bk14: 708a 1045030i bk15: 708a 1045047i 
dram_util_bins: 0 0 0 0 0 0 0 0 0 0
dram_eff_bins: 0 0 0 0 0 0 0 0 0 0
mrqq: max=64 avg=1.29624
Memory Partition 6: 
Cache L2_bank_012:
MSHR contents

Cache L2_bank_013:
MSHR contents

In Dram Latency Queue (total = 0): 
DRAM[6]: 16 bks, busW=4 BL=8 CL=12, tRRD=2 tCCD=6, tRCD=12 tRAS=28 tRP=12 tRC=40
n_cmd=1059016 n_nop=1041664 n_act=204 n_pre=188 n_req=4240 n_rd=11464 n_write=5496 bw_util=0.03203
n_activity=48590 dram_eff=0.6981
bk0: 704a 1045124i bk1: 704a 1044863i bk2: 680a 1045316i bk3: 680a 1044527i bk4: 640a 1043884i bk5: 640a 1043646i bk6: 732a 1043572i bk7: 732a 1043226i bk8: 768a 1043123i bk9: 768a 1043525i bk10: 768a 1043046i bk11: 768a 1043250i bk12: 744a 1043661i bk13: 744a 1043691i bk14: 696a 1045717i bk15: 696a 1045970i 
dram_util_bins: 0 0 0 0 0 0 0 0 0 0
dram_eff_bins: 0 0 0 0 0 0 0 0 0 0
mrqq: max=64 avg=1.29648
Memory Partition 7: 
Cache L2_bank_014:
MSHR contents

Cache L2_bank_015:
MSHR contents

In Dram Latency Queue (total = 0): 
DRAM[7]: 16 bks, busW=4 BL=8 CL=12, tRRD=2 tCCD=6, tRCD=12 tRAS=28 tRP=12 tRC=40
n_cmd=1059016 n_nop=1041648 n_act=216 n_pre=200 n_req=4238 n_rd=11456 n_write=5496 bw_util=0.03201
n_activity=48847 dram_eff=0.6941
bk0: 704a 1045274i bk1: 704a 1045277i bk2: 676a 1044436i bk3: 676a 1044428i bk4: 640a 1043352i bk5: 640a 1043532i bk6: 732a 1043370i bk7: 732a 1043218i bk8: 768a 1043146i bk9: 768a 1043335i bk10: 756a 1042965i bk11: 756a 1043463i bk12: 756a 1043239i bk13: 756a 1043446i bk14: 696a 1045927i bk15: 696a 1045497i 
dram_util_bins: 0 0 0 0 0 0 0 0 0 0
dram_eff_bins: 0 0 0 0 0 0 0 0 0 0
mrqq: max=64 avg=1.29248
Memory Partition 8: 
Cache L2_bank_016:
MSHR contents

Cache L2_bank_017:
MSHR contents

In Dram Latency Queue (total = 0): 
DRAM[8]: 16 bks, busW=4 BL=8 CL=12, tRRD=2 tCCD=6, tRCD=12 tRAS=28 tRP=12 tRC=40
n_cmd=1059016 n_nop=1041650 n_act=207 n_pre=191 n_req=4242 n_rd=11464 n_write=5504 bw_util=0.03204
n_activity=48538 dram_eff=0.6992
bk0: 704a 1045244i bk1: 704a 1044938i bk2: 676a 1044475i bk3: 676a 1044144i bk4: 640a 1043424i bk5: 640a 1043890i bk6: 736a 1043450i bk7: 736a 1043328i bk8: 768a 1043242i bk9: 768a 1043229i bk10: 756a 1043232i bk11: 756a 1043851i bk12: 756a 1042529i bk13: 756a 1042984i bk14: 696a 1045469i bk15: 696a 1045643i 
dram_util_bins: 0 0 0 0 0 0 0 0 0 0
dram_eff_bins: 0 0 0 0 0 0 0 0 0 0
mrqq: max=64 avg=1.2953
Memory Partition 9: 
Cache L2_bank_018:
MSHR contents

Cache L2_bank_019:
MSHR contents

In Dram Latency Queue (total = 0): 
DRAM[9]: 16 bks, busW=4 BL=8 CL=12, tRRD=2 tCCD=6, tRCD=12 tRAS=28 tRP=12 tRC=40
n_cmd=1059016 n_nop=1041658 n_act=211 n_pre=195 n_req=4238 n_rd=11456 n_write=5496 bw_util=0.03201
n_activity=48411 dram_eff=0.7003
bk0: 692a 1045467i bk1: 692a 1045217i bk2: 684a 1044176i bk3: 684a 1043660i bk4: 640a 1043522i bk5: 640a 1043477i bk6: 736a 1043479i bk7: 736a 1044373i bk8: 768a 1043622i bk9: 768a 1043395i bk10: 756a 1043141i bk11: 756a 1043546i bk12: 756a 1042369i bk13: 756a 1042585i bk14: 696a 1045401i bk15: 696a 1045176i 
dram_util_bins: 0 0 0 0 0 0 0 0 0 0
dram_eff_bins: 0 0 0 0 0 0 0 0 0 0
mrqq: max=64 avg=1.29283
Memory Partition 10: 
Cache L2_bank_020:
MSHR contents

Cache L2_bank_021:
MSHR contents

In Dram Latency Queue (total = 0): 
DRAM[10]: 16 bks, busW=4 BL=8 CL=12, tRRD=2 tCCD=6, tRCD=12 tRAS=28 tRP=12 tRC=40
n_cmd=1059016 n_nop=1041646 n_act=213 n_pre=197 n_req=4240 n_rd=11464 n_write=5496 bw_util=0.03203
n_activity=48831 dram_eff=0.6946
bk0: 692a 1045339i bk1: 692a 1045738i bk2: 684a 1044294i bk3: 684a 1043883i bk4: 640a 1043920i bk5: 640a 1043606i bk6: 740a 1043348i bk7: 740a 1043448i bk8: 768a 1043082i bk9: 768a 1043198i bk10: 756a 1043263i bk11: 756a 1043803i bk12: 744a 1042988i bk13: 744a 1043622i bk14: 708a 1045259i bk15: 708a 1045289i 
dram_util_bins: 0 0 0 0 0 0 0 0 0 0
dram_eff_bins: 0 0 0 0 0 0 0 0 0 0
mrqq: max=64 avg=1.28854

========= L2 cache stats =========
L2_cache_bank[0]: Access = 2171, Miss = 1434, Miss_rate = 0.661, Pending_hits = 34, Reservation_fails = 0
L2_cache_bank[1]: Access = 2143, Miss = 1433, Miss_rate = 0.669, Pending_hits = 111, Reservation_fails = 0
L2_cache_bank[2]: Access = 2141, Miss = 1433, Miss_rate = 0.669, Pending_hits = 1, Reservation_fails = 0
L2_cache_bank[3]: Access = 2112, Miss = 1432, Miss_rate = 0.678, Pending_hits = 101, Reservation_fails = 0
L2_cache_bank[4]: Access = 2114, Miss = 1433, Miss_rate = 0.678, Pending_hits = 0, Reservation_fails = 0
L2_cache_bank[5]: Access = 2115, Miss = 1433, Miss_rate = 0.678, Pending_hits = 108, Reservation_fails = 0
L2_cache_bank[6]: Access = 2114, Miss = 1432, Miss_rate = 0.677, Pending_hits = 0, Reservation_fails = 0
L2_cache_bank[7]: Access = 2113, Miss = 1432, Miss_rate = 0.678, Pending_hits = 102, Reservation_fails = 0
L2_cache_bank[8]: Access = 2140, Miss = 1433, Miss_rate = 0.670, Pending_hits = 29, Reservation_fails = 0
L2_cache_bank[9]: Access = 2141, Miss = 1433, Miss_rate = 0.669, Pending_hits = 135, Reservation_fails = 0
L2_cache_bank[10]: Access = 2144, Miss = 1434, Miss_rate = 0.669, Pending_hits = 30, Reservation_fails = 0
L2_cache_bank[11]: Access = 2144, Miss = 1434, Miss_rate = 0.669, Pending_hits = 128, Reservation_fails = 0
L2_cache_bank[12]: Access = 2142, Miss = 1433, Miss_rate = 0.669, Pending_hits = 29, Reservation_fails = 0
L2_cache_bank[13]: Access = 2141, Miss = 1433, Miss_rate = 0.669, Pending_hits = 133, Reservation_fails = 0
L2_cache_bank[14]: Access = 2140, Miss = 1432, Miss_rate = 0.669, Pending_hits = 28, Reservation_fails = 0
L2_cache_bank[15]: Access = 2141, Miss = 1432, Miss_rate = 0.669, Pending_hits = 133, Reservation_fails = 0
L2_cache_bank[16]: Access = 2144, Miss = 1433, Miss_rate = 0.668, Pending_hits = 28, Reservation_fails = 0
L2_cache_bank[17]: Access = 2144, Miss = 1433, Miss_rate = 0.668, Pending_hits = 134, Reservation_fails = 0
L2_cache_bank[18]: Access = 2141, Miss = 1432, Miss_rate = 0.669, Pending_hits = 8, Reservation_fails = 0
L2_cache_bank[19]: Access = 2140, Miss = 1432, Miss_rate = 0.669, Pending_hits = 106, Reservation_fails = 0
L2_cache_bank[20]: Access = 2141, Miss = 1433, Miss_rate = 0.669, Pending_hits = 3, Reservation_fails = 0
L2_cache_bank[21]: Access = 2142, Miss = 1433, Miss_rate = 0.669, Pending_hits = 113, Reservation_fails = 0
L2_total_cache_accesses = 47008
L2_total_cache_misses = 31522
L2_total_cache_miss_rate = 0.6706
L2_total_cache_pending_hits = 1494
L2_total_cache_reservation_fails = 0
L2_total_cache_breakdown:
	L2_cache_stats_breakdown[GLOBAL_ACC_R][HIT] = 13832
	L2_cache_stats_breakdown[GLOBAL_ACC_R][HIT_RESERVED] = 1168
	L2_cache_stats_breakdown[GLOBAL_ACC_R][MISS] = 16384
	L2_cache_stats_breakdown[GLOBAL_ACC_R][RESERVATION_FAIL] = 0
	L2_cache_stats_breakdown[LOCAL_ACC_R][HIT] = 0
	L2_cache_stats_breakdown[LOCAL_ACC_R][HIT_RESERVED] = 0
	L2_cache_stats_breakdown[LOCAL_ACC_R][MISS] = 0
	L2_cache_stats_breakdown[LOCAL_ACC_R][RESERVATION_FAIL] = 0
	L2_cache_stats_breakdown[CONST_ACC_R][HIT] = 0
	L2_cache_stats_breakdown[CONST_ACC_R][HIT_RESERVED] = 27
	L2_cache_stats_breakdown[CONST_ACC_R][MISS] = 1
	L2_cache_stats_breakdown[CONST_ACC_R][RESERVATION_FAIL] = 0
	L2_cache_stats_breakdown[TEXTURE_ACC_R][HIT] = 0
	L2_cache_stats_breakdown[TEXTURE_ACC_R][HIT_RESERVED] = 0
	L2_cache_stats_breakdown[TEXTURE_ACC_R][MISS] = 0
	L2_cache_stats_breakdown[TEXTURE_ACC_R][RESERVATION_FAIL] = 0
	L2_cache_stats_breakdown[GLOBAL_ACC_W][HIT] = 0
	L2_cache_stats_breakdown[GLOBAL_ACC_W][HIT_RESERVED] = 0
	L2_cache_stats_breakdown[GLOBAL_ACC_W][MISS] = 15120
	L2_cache_stats_breakdown[GLOBAL_ACC_W][RESERVATION_FAIL] = 0
	L2_cache_stats_breakdown[LOCAL_ACC_W][HIT] = 0
	L2_cache_stats_breakdown[LOCAL_ACC_W][HIT_RESERVED] = 0
	L2_cache_stats_breakdown[LOCAL_ACC_W][MISS] = 0
	L2_cache_stats_breakdown[LOCAL_ACC_W][RESERVATION_FAIL] = 0
	L2_cache_stats_breakdown[L1_WRBK_ACC][HIT] = 0
	L2_cache_stats_breakdown[L1_WRBK_ACC][HIT_RESERVED] = 0
	L2_cache_stats_breakdown[L1_WRBK_ACC][MISS] = 0
	L2_cache_stats_breakdown[L1_WRBK_ACC][RESERVATION_FAIL] = 0
	L2_cache_stats_breakdown[L2_WRBK_ACC][HIT] = 0
	L2_cache_stats_breakdown[L2_WRBK_ACC][HIT_RESERVED] = 0
	L2_cache_stats_breakdown[L2_WRBK_ACC][MISS] = 0
	L2_cache_stats_breakdown[L2_WRBK_ACC][RESERVATION_FAIL] = 0
	L2_cache_stats_breakdown[INST_ACC_R][HIT] = 160
	L2_cache_stats_breakdown[INST_ACC_R][HIT_RESERVED] = 299
	L2_cache_stats_breakdown[INST_ACC_R][MISS] = 17
	L2_cache_stats_breakdown[INST_ACC_R][RESERVATION_FAIL] = 0
	L2_cache_stats_breakdown[L1_WR_ALLOC_R][HIT] = 0
	L2_cache_stats_breakdown[L1_WR_ALLOC_R][HIT_RESERVED] = 0
	L2_cache_stats_breakdown[L1_WR_ALLOC_R][MISS] = 0
	L2_cache_stats_breakdown[L1_WR_ALLOC_R][RESERVATION_FAIL] = 0
	L2_cache_stats_breakdown[L2_WR_ALLOC_R][HIT] = 0
	L2_cache_stats_breakdown[L2_WR_ALLOC_R][HIT_RESERVED] = 0
	L2_cache_stats_breakdown[L2_WR_ALLOC_R][MISS] = 0
	L2_cache_stats_breakdown[L2_WR_ALLOC_R][RESERVATION_FAIL] = 0
	L2_cache_stats_breakdown[GLOBAL_ACC_R][TOTAL_ACCESS] = 31384
	L2_cache_stats_breakdown[CONST_ACC_R][TOTAL_ACCESS] = 28
	L2_cache_stats_breakdown[GLOBAL_ACC_W][TOTAL_ACCESS] = 15120
	L2_cache_stats_breakdown[INST_ACC_R][TOTAL_ACCESS] = 476
L2_cache_data_port_util = 0.003
L2_cache_fill_port_util = 0.010

icnt_total_pkts_mem_to_simt=151824
icnt_total_pkts_simt_to_mem=107488
LD_mem_lat_dist  0 0 0 0 0 0 0 0 0 0 0 0 0 0 0 0 0 0 0 0 0 0 0 0 0 0 0
ST_mem_lat_dist  0 0 0 0 0 0 0 0 0 0 0 0 0 0 0 0 0 0 0 0 0 0 0 0 0 0 0
----------------------------Interconnect-DETAILS--------------------------------
Class 0:
Packet latency average = 22.3893
	minimum = 6
	maximum = 1541
Network latency average = 18.1469
	minimum = 6
	maximum = 1366
Slowest packet = 41119
Flit latency average = 21.0207
	minimum = 6
	maximum = 1362
Slowest flit = 116162
Fragmentation average = 1.02194
	minimum = 0
	maximum = 1289
Injected packet rate average = 0.00164845
	minimum = 0.00130627 (at node 0)
	maximum = 0.00195151 (at node 3)
Accepted packet rate average = 0.00164845
	minimum = 0.00130627 (at node 0)
	maximum = 0.00195151 (at node 3)
Injected flit rate average = 0.00454672
	minimum = 0.00298951 (at node 0)
	maximum = 0.00615348 (at node 28)
Accepted flit rate average= 0.00454672
	minimum = 0.00421512 (at node 0)
	maximum = 0.0062841 (at node 3)
Injected packet length average = 2.75817
Accepted packet length average = 2.75817
Total in-flight flits = 0 (0 measured)
====== Overall Traffic Statistics ======
====== Traffic class 0 ======
Packet latency average = 22.3893 (1 samples)
	minimum = 6 (1 samples)
	maximum = 1541 (1 samples)
Network latency average = 18.1469 (1 samples)
	minimum = 6 (1 samples)
	maximum = 1366 (1 samples)
Flit latency average = 21.0207 (1 samples)
	minimum = 6 (1 samples)
	maximum = 1362 (1 samples)
Fragmentation average = 1.02194 (1 samples)
	minimum = 0 (1 samples)
	maximum = 1289 (1 samples)
Injected packet rate average = 0.00164845 (1 samples)
	minimum = 0.00130627 (1 samples)
	maximum = 0.00195151 (1 samples)
Accepted packet rate average = 0.00164845 (1 samples)
	minimum = 0.00130627 (1 samples)
	maximum = 0.00195151 (1 samples)
Injected flit rate average = 0.00454672 (1 samples)
	minimum = 0.00298951 (1 samples)
	maximum = 0.00615348 (1 samples)
Accepted flit rate average = 0.00454672 (1 samples)
	minimum = 0.00421512 (1 samples)
	maximum = 0.0062841 (1 samples)
Injected packet size average = 2.75817 (1 samples)
Accepted packet size average = 2.75817 (1 samples)
Hops average = 1 (1 samples)
----------------------------END-of-Interconnect-DETAILS-------------------------


gpgpu_simulation_time = 0 days, 0 hrs, 28 min, 53 sec (1733 sec)
gpgpu_simulation_rate = 16646 (inst/sec)
gpgpu_simulation_rate = 457 (cycle/sec)

GPGPU-Sim PTX: cudaLaunch for 0x0x401496 (mode=performance simulation) on stream 0
GPGPU-Sim PTX: pushing kernel '_Z24block2D_hybrid_coarsen_xffPfS_iii' to stream 0, gridDim= (2,32,1) blockDim = (32,4,1) 
GPGPU-Sim uArch: Shader 9 bind to kernel 2 '_Z24block2D_hybrid_coarsen_xffPfS_iii'
GPGPU-Sim uArch: Shader 10 bind to kernel 2 '_Z24block2D_hybrid_coarsen_xffPfS_iii'
GPGPU-Sim uArch: Shader 11 bind to kernel 2 '_Z24block2D_hybrid_coarsen_xffPfS_iii'
GPGPU-Sim uArch: Shader 12 bind to kernel 2 '_Z24block2D_hybrid_coarsen_xffPfS_iii'
GPGPU-Sim uArch: Shader 13 bind to kernel 2 '_Z24block2D_hybrid_coarsen_xffPfS_iii'
GPGPU-Sim uArch: Shader 14 bind to kernel 2 '_Z24block2D_hybrid_coarsen_xffPfS_iii'
GPGPU-Sim uArch: Shader 15 bind to kernel 2 '_Z24block2D_hybrid_coarsen_xffPfS_iii'
GPGPU-Sim uArch: Shader 16 bind to kernel 2 '_Z24block2D_hybrid_coarsen_xffPfS_iii'
GPGPU-Sim uArch: Shader 17 bind to kernel 2 '_Z24block2D_hybrid_coarsen_xffPfS_iii'
GPGPU-Sim uArch: Shader 18 bind to kernel 2 '_Z24block2D_hybrid_coarsen_xffPfS_iii'
GPGPU-Sim uArch: Shader 19 bind to kernel 2 '_Z24block2D_hybrid_coarsen_xffPfS_iii'
GPGPU-Sim uArch: Shader 20 bind to kernel 2 '_Z24block2D_hybrid_coarsen_xffPfS_iii'
GPGPU-Sim uArch: Shader 21 bind to kernel 2 '_Z24block2D_hybrid_coarsen_xffPfS_iii'
GPGPU-Sim uArch: Shader 22 bind to kernel 2 '_Z24block2D_hybrid_coarsen_xffPfS_iii'
GPGPU-Sim uArch: Shader 23 bind to kernel 2 '_Z24block2D_hybrid_coarsen_xffPfS_iii'
GPGPU-Sim uArch: Shader 24 bind to kernel 2 '_Z24block2D_hybrid_coarsen_xffPfS_iii'
GPGPU-Sim uArch: Shader 25 bind to kernel 2 '_Z24block2D_hybrid_coarsen_xffPfS_iii'
GPGPU-Sim uArch: Shader 26 bind to kernel 2 '_Z24block2D_hybrid_coarsen_xffPfS_iii'
GPGPU-Sim uArch: Shader 27 bind to kernel 2 '_Z24block2D_hybrid_coarsen_xffPfS_iii'
GPGPU-Sim uArch: Shader 0 bind to kernel 2 '_Z24block2D_hybrid_coarsen_xffPfS_iii'
GPGPU-Sim uArch: Shader 1 bind to kernel 2 '_Z24block2D_hybrid_coarsen_xffPfS_iii'
GPGPU-Sim uArch: Shader 2 bind to kernel 2 '_Z24block2D_hybrid_coarsen_xffPfS_iii'
GPGPU-Sim uArch: Shader 3 bind to kernel 2 '_Z24block2D_hybrid_coarsen_xffPfS_iii'
GPGPU-Sim uArch: Shader 4 bind to kernel 2 '_Z24block2D_hybrid_coarsen_xffPfS_iii'
GPGPU-Sim uArch: Shader 5 bind to kernel 2 '_Z24block2D_hybrid_coarsen_xffPfS_iii'
GPGPU-Sim uArch: Shader 6 bind to kernel 2 '_Z24block2D_hybrid_coarsen_xffPfS_iii'
GPGPU-Sim uArch: Shader 7 bind to kernel 2 '_Z24block2D_hybrid_coarsen_xffPfS_iii'
GPGPU-Sim uArch: Shader 8 bind to kernel 2 '_Z24block2D_hybrid_coarsen_xffPfS_iii'
Destroy streams for kernel 2: size 0
kernel_name = _Z24block2D_hybrid_coarsen_xffPfS_iii 
kernel_launch_uid = 2 
gpu_sim_cycle = 227253
gpu_sim_insn = 28848876
gpu_ipc =     126.9461
gpu_tot_sim_cycle = 1241882
gpu_tot_sim_insn = 57697752
gpu_tot_ipc =      46.4599
gpu_tot_issued_cta = 128
max_total_param_size = 0
gpu_stall_dramfull = 126302
gpu_stall_icnt2sh    = 2677
partiton_reqs_in_parallel = 4968110
partiton_reqs_in_parallel_total    = 12452392
partiton_level_parallism =      21.8616
partiton_level_parallism_total  =      14.0275
partiton_reqs_in_parallel_util = 4968110
partiton_reqs_in_parallel_util_total    = 12452392
gpu_sim_cycle_parition_util = 226671
gpu_tot_sim_cycle_parition_util    = 569374
partiton_level_parallism_util =      21.9177
partiton_level_parallism_util_total  =      21.8838
partiton_replys_in_parallel = 46504
partiton_replys_in_parallel_total    = 47008
L2_BW  =      19.3962 GB/Sec
L2_BW_total  =       7.1371 GB/Sec
gpu_total_sim_rate=25383

========= Core cache stats =========
L1I_cache:
	L1I_total_cache_accesses = 1158456
	L1I_total_cache_misses = 3000
	L1I_total_cache_miss_rate = 0.0026
	L1I_total_cache_pending_hits = 0
	L1I_total_cache_reservation_fails = 0
L1D_cache:
	L1D_cache_core[0]: Access = 0, Miss = 0, Miss_rate = -nan, Pending_hits = 0, Reservation_fails = 0
	L1D_cache_core[1]: Access = 0, Miss = 0, Miss_rate = -nan, Pending_hits = 0, Reservation_fails = 0
	L1D_cache_core[2]: Access = 0, Miss = 0, Miss_rate = -nan, Pending_hits = 0, Reservation_fails = 0
	L1D_cache_core[3]: Access = 0, Miss = 0, Miss_rate = -nan, Pending_hits = 0, Reservation_fails = 0
	L1D_cache_core[4]: Access = 0, Miss = 0, Miss_rate = -nan, Pending_hits = 0, Reservation_fails = 0
	L1D_cache_core[5]: Access = 0, Miss = 0, Miss_rate = -nan, Pending_hits = 0, Reservation_fails = 0
	L1D_cache_core[6]: Access = 0, Miss = 0, Miss_rate = -nan, Pending_hits = 0, Reservation_fails = 0
	L1D_cache_core[7]: Access = 0, Miss = 0, Miss_rate = -nan, Pending_hits = 0, Reservation_fails = 0
	L1D_cache_core[8]: Access = 0, Miss = 0, Miss_rate = -nan, Pending_hits = 0, Reservation_fails = 0
	L1D_cache_core[9]: Access = 0, Miss = 0, Miss_rate = -nan, Pending_hits = 0, Reservation_fails = 0
	L1D_cache_core[10]: Access = 0, Miss = 0, Miss_rate = -nan, Pending_hits = 0, Reservation_fails = 0
	L1D_cache_core[11]: Access = 0, Miss = 0, Miss_rate = -nan, Pending_hits = 0, Reservation_fails = 0
	L1D_cache_core[12]: Access = 0, Miss = 0, Miss_rate = -nan, Pending_hits = 0, Reservation_fails = 0
	L1D_cache_core[13]: Access = 0, Miss = 0, Miss_rate = -nan, Pending_hits = 0, Reservation_fails = 0
	L1D_cache_core[14]: Access = 0, Miss = 0, Miss_rate = -nan, Pending_hits = 0, Reservation_fails = 0
	L1D_cache_core[15]: Access = 0, Miss = 0, Miss_rate = -nan, Pending_hits = 0, Reservation_fails = 0
	L1D_cache_core[16]: Access = 0, Miss = 0, Miss_rate = -nan, Pending_hits = 0, Reservation_fails = 0
	L1D_cache_core[17]: Access = 0, Miss = 0, Miss_rate = -nan, Pending_hits = 0, Reservation_fails = 0
	L1D_cache_core[18]: Access = 0, Miss = 0, Miss_rate = -nan, Pending_hits = 0, Reservation_fails = 0
	L1D_cache_core[19]: Access = 0, Miss = 0, Miss_rate = -nan, Pending_hits = 0, Reservation_fails = 0
	L1D_cache_core[20]: Access = 0, Miss = 0, Miss_rate = -nan, Pending_hits = 0, Reservation_fails = 0
	L1D_cache_core[21]: Access = 0, Miss = 0, Miss_rate = -nan, Pending_hits = 0, Reservation_fails = 0
	L1D_cache_core[22]: Access = 0, Miss = 0, Miss_rate = -nan, Pending_hits = 0, Reservation_fails = 0
	L1D_cache_core[23]: Access = 0, Miss = 0, Miss_rate = -nan, Pending_hits = 0, Reservation_fails = 0
	L1D_cache_core[24]: Access = 0, Miss = 0, Miss_rate = -nan, Pending_hits = 0, Reservation_fails = 0
	L1D_cache_core[25]: Access = 0, Miss = 0, Miss_rate = -nan, Pending_hits = 0, Reservation_fails = 0
	L1D_cache_core[26]: Access = 0, Miss = 0, Miss_rate = -nan, Pending_hits = 0, Reservation_fails = 0
	L1D_cache_core[27]: Access = 0, Miss = 0, Miss_rate = -nan, Pending_hits = 0, Reservation_fails = 0
	L1D_total_cache_accesses = 0
	L1D_total_cache_misses = 0
	L1D_total_cache_pending_hits = 0
	L1D_total_cache_reservation_fails = 0
	L1D_cache_data_port_util = 0.000
	L1D_cache_fill_port_util = 0.000
L1C_cache:
	L1C_total_cache_accesses = 3584
	L1C_total_cache_misses = 1632
	L1C_total_cache_miss_rate = 0.4554
	L1C_total_cache_pending_hits = 0
[...]
F: 20862039----T: 20870741 	 St: 80763000 Sz: 65536 	 Sm: 0 	 T: write_back(5.875760)
F: 20868721----T: 20884884 	 St: 804e3000 Sz: 131072 	 Sm: 0 	 T: memcpy_h2d(10.913572)
F: 20870741----T: 20879443 	 St: 80563000 Sz: 65536 	 Sm: 0 	 T: write_back(5.875760)
F: 20879443----T: 20888145 	 St: 80753000 Sz: 65536 	 Sm: 0 	 T: write_back(5.875760)
F: 20884884----T: 20888696 	 St: 806c3000 Sz: 20480 	 Sm: 0 	 T: memcpy_h2d(2.573936)
F: 20888145----T: 20896847 	 St: 80773000 Sz: 65536 	 Sm: 0 	 T: write_back(5.875760)
F: 20888696----T: 20895108 	 St: 806c8000 Sz: 45056 	 Sm: 0 	 T: memcpy_h2d(4.329507)
F: 20896847----T: 20905549 	 St: 80573000 Sz: 65536 	 Sm: 0 	 T: write_back(5.875760)
F: 20905549----T: 20936742 	 St: 806e3000 Sz: 262144 	 Sm: 0 	 T: memcpy_h2d(21.062120)
F: 20905549----T: 20914251 	 St: 803f3000 Sz: 65536 	 Sm: 0 	 T: write_back(5.875760)
F: 20914251----T: 20922953 	 St: 805f3000 Sz: 65536 	 Sm: 0 	 T: write_back(5.875760)
F: 20922953----T: 20931655 	 St: 80603000 Sz: 65536 	 Sm: 0 	 T: write_back(5.875760)
F: 20931655----T: 20940357 	 St: 80403000 Sz: 65536 	 Sm: 0 	 T: write_back(5.875760)
F: 20936742----T: 20940554 	 St: 80563000 Sz: 20480 	 Sm: 0 	 T: memcpy_h2d(2.573936)
F: 20940358----T: 20949060 	 St: 805b3000 Sz: 65536 	 Sm: 0 	 T: write_back(5.875760)
F: 20940554----T: 20946966 	 St: 80568000 Sz: 45056 	 Sm: 0 	 T: memcpy_h2d(4.329507)
F: 20946966----T: 20970638 	 St: 80753000 Sz: 196608 	 Sm: 0 	 T: memcpy_h2d(15.983795)
F: 20949060----T: 20957762 	 St: 805a3000 Sz: 65536 	 Sm: 0 	 T: write_back(5.875760)
F: 20957762----T: 20966464 	 St: 805c3000 Sz: 65536 	 Sm: 0 	 T: write_back(5.875760)
F: 20966464----T: 20975166 	 St: 805d3000 Sz: 65536 	 Sm: 0 	 T: write_back(5.875760)
F: 20970638----T: 20986801 	 St: 803f3000 Sz: 131072 	 Sm: 0 	 T: memcpy_h2d(10.913572)
F: 20975166----T: 20983868 	 St: 80613000 Sz: 65536 	 Sm: 0 	 T: write_back(5.875760)
F: 20983868----T: 20992570 	 St: 80413000 Sz: 65536 	 Sm: 0 	 T: write_back(5.875760)
F: 20986801----T: 20989406 	 St: 80573000 Sz: 4096 	 Sm: 0 	 T: memcpy_h2d(1.758947)
F: 20989406----T: 20997646 	 St: 80574000 Sz: 61440 	 Sm: 0 	 T: memcpy_h2d(5.563808)
F: 20992571----T: 21001273 	 St: 80423000 Sz: 65536 	 Sm: 0 	 T: write_back(5.875760)
F: 20997646----T: 21006348 	 St: 805b3000 Sz: 65536 	 Sm: 0 	 T: memcpy_h2d(5.875760)
F: 21006348----T: 21022511 	 St: 805f3000 Sz: 131072 	 Sm: 0 	 T: memcpy_h2d(10.913572)
F: 21244662----T: 21661751 	 	 	 Kl: 38 	 Sm: 0 	 T: kernel_launch(281.626617)
F: 21245046----T: 21253748 	 St: 80643000 Sz: 65536 	 Sm: 0 	 T: write_back(5.875760)
F: 21253748----T: 21269911 	 St: 80413000 Sz: 131072 	 Sm: 0 	 T: memcpy_h2d(10.913572)
F: 21253748----T: 21262450 	 St: 80453000 Sz: 65536 	 Sm: 0 	 T: write_back(5.875760)
F: 21262450----T: 21271152 	 St: 80653000 Sz: 65536 	 Sm: 0 	 T: write_back(5.875760)
F: 21269911----T: 21272997 	 St: 805a3000 Sz: 12288 	 Sm: 0 	 T: memcpy_h2d(2.083727)
F: 21271152----T: 21279854 	 St: 80663000 Sz: 65536 	 Sm: 0 	 T: write_back(5.875760)
F: 21272997----T: 21275602 	 St: 805a6000 Sz: 4096 	 Sm: 0 	 T: memcpy_h2d(1.758947)
F: 21275602----T: 21278207 	 St: 805a7000 Sz: 4096 	 Sm: 0 	 T: memcpy_h2d(1.758947)
F: 21278207----T: 21284619 	 St: 805a8000 Sz: 45056 	 Sm: 0 	 T: memcpy_h2d(4.329507)
F: 21279854----T: 21288556 	 St: 80443000 Sz: 65536 	 Sm: 0 	 T: write_back(5.875760)
F: 21284619----T: 21300782 	 St: 805c3000 Sz: 131072 	 Sm: 0 	 T: memcpy_h2d(10.913572)
F: 21288557----T: 21297259 	 St: 80473000 Sz: 65536 	 Sm: 0 	 T: write_back(5.875760)
F: 21300782----T: 21309484 	 St: 80613000 Sz: 65536 	 Sm: 0 	 T: memcpy_h2d(5.875760)
F: 21312858----T: 21321560 	 St: 804b3000 Sz: 65536 	 Sm: 0 	 T: write_back(5.875760)
F: 21321560----T: 21337723 	 St: 80443000 Sz: 131072 	 Sm: 0 	 T: memcpy_h2d(10.913572)
F: 21321560----T: 21330262 	 St: 806b3000 Sz: 65536 	 Sm: 0 	 T: write_back(5.875760)
F: 21330262----T: 21338964 	 St: 804c3000 Sz: 65536 	 Sm: 0 	 T: write_back(5.875760)
F: 21337723----T: 21346425 	 St: 80473000 Sz: 65536 	 Sm: 0 	 T: memcpy_h2d(5.875760)
F: 21338964----T: 21347666 	 St: 804a3000 Sz: 65536 	 Sm: 0 	 T: write_back(5.875760)
F: 21346425----T: 21349855 	 St: 80643000 Sz: 16384 	 Sm: 0 	 T: memcpy_h2d(2.316003)
F: 21347666----T: 21356368 	 St: 804d3000 Sz: 65536 	 Sm: 0 	 T: write_back(5.875760)
F: 21356369----T: 21378162 	 St: 80647000 Sz: 180224 	 Sm: 0 	 T: memcpy_h2d(14.715057)
F: 21356369----T: 21387562 	 St: 804e3000 Sz: 262144 	 Sm: 0 	 T: write_back(21.062120)
F: 21387562----T: 21396264 	 St: 806c3000 Sz: 65536 	 Sm: 0 	 T: write_back(5.875760)
F: 21396264----T: 21404966 	 St: 806e3000 Sz: 65536 	 Sm: 0 	 T: write_back(5.875760)
F: 21404966----T: 21413668 	 St: 80703000 Sz: 65536 	 Sm: 0 	 T: write_back(5.875760)
F: 21413668----T: 21422370 	 St: 806d3000 Sz: 65536 	 Sm: 0 	 T: write_back(5.875760)
F: 21422370----T: 21483677 	 St: 804a3000 Sz: 524288 	 Sm: 0 	 T: memcpy_h2d(41.395679)
F: 21422370----T: 21431072 	 St: 806f3000 Sz: 65536 	 Sm: 0 	 T: write_back(5.875760)
F: 21431072----T: 21439774 	 St: 80713000 Sz: 65536 	 Sm: 0 	 T: write_back(5.875760)
F: 21483677----T: 21486763 	 St: 806b3000 Sz: 12288 	 Sm: 0 	 T: memcpy_h2d(2.083727)
F: 21486763----T: 21494085 	 St: 806b6000 Sz: 53248 	 Sm: 0 	 T: memcpy_h2d(4.943957)
F: 21487855----T: 21496557 	 St: 80763000 Sz: 65536 	 Sm: 0 	 T: write_back(5.875760)
F: 21494085----T: 21496885 	 St: 806c3000 Sz: 8192 	 Sm: 0 	 T: memcpy_h2d(1.890614)
F: 21496557----T: 21505259 	 St: 80573000 Sz: 65536 	 Sm: 0 	 T: write_back(5.875760)
F: 21505259----T: 21513961 	 St: 80773000 Sz: 65536 	 Sm: 0 	 T: write_back(5.875760)
F: 21513961----T: 21522663 	 St: 80563000 Sz: 65536 	 Sm: 0 	 T: write_back(5.875760)
F: 21522663----T: 21567969 	 St: 806c5000 Sz: 385024 	 Sm: 0 	 T: memcpy_h2d(30.591492)
F: 21522663----T: 21538826 	 St: 80583000 Sz: 131072 	 Sm: 0 	 T: write_back(10.913572)
F: 21578404----T: 21587106 	 St: 803d3000 Sz: 65536 	 Sm: 0 	 T: write_back(5.875760)
F: 21587106----T: 21595808 	 St: 805d3000 Sz: 65536 	 Sm: 0 	 T: write_back(5.875760)
F: 21595808----T: 21604510 	 St: 805e3000 Sz: 65536 	 Sm: 0 	 T: write_back(5.875760)
F: 21604510----T: 21635703 	 St: 80563000 Sz: 262144 	 Sm: 0 	 T: memcpy_h2d(21.062120)
F: 21604510----T: 21613212 	 St: 803e3000 Sz: 65536 	 Sm: 0 	 T: write_back(5.875760)
F: 21613212----T: 21621914 	 St: 805f3000 Sz: 65536 	 Sm: 0 	 T: write_back(5.875760)
F: 21621915----T: 21645587 	 St: 805a3000 Sz: 196608 	 Sm: 0 	 T: write_back(15.983795)
F: 21635703----T: 21638308 	 St: 80763000 Sz: 4096 	 Sm: 0 	 T: memcpy_h2d(1.758947)
F: 21638308----T: 21654003 	 St: 80764000 Sz: 126976 	 Sm: 0 	 T: memcpy_h2d(10.597569)
F: 21645587----T: 21661750 	 St: 80603000 Sz: 131072 	 Sm: 0 	 T: write_back(10.913572)
F: 21883901----T: 22230411 	 	 	 Kl: 39 	 Sm: 0 	 T: kernel_launch(233.970291)
F: 21885731----T: 21901894 	 St: 803d3000 Sz: 131072 	 Sm: 0 	 T: memcpy_h2d(10.913572)
F: 21885731----T: 21894433 	 St: 80453000 Sz: 65536 	 Sm: 0 	 T: write_back(5.875760)
F: 21894433----T: 21903135 	 St: 80663000 Sz: 65536 	 Sm: 0 	 T: write_back(5.875760)
F: 21901894----T: 21911986 	 St: 805a3000 Sz: 77824 	 Sm: 0 	 T: memcpy_h2d(6.814315)
F: 21903135----T: 21911837 	 St: 80463000 Sz: 65536 	 Sm: 0 	 T: write_back(5.875760)
F: 21911837----T: 21920539 	 St: 80673000 Sz: 65536 	 Sm: 0 	 T: write_back(5.875760)
F: 21920539----T: 21929241 	 St: 80473000 Sz: 65536 	 Sm: 0 	 T: write_back(5.875760)
F: 21929241----T: 21981606 	 St: 805b6000 Sz: 446464 	 Sm: 0 	 T: memcpy_h2d(35.357868)
F: 21929241----T: 21937943 	 St: 804b3000 Sz: 65536 	 Sm: 0 	 T: write_back(5.875760)
F: 21937943----T: 21946645 	 St: 806c3000 Sz: 65536 	 Sm: 0 	 T: write_back(5.875760)
F: 21946645----T: 21955347 	 St: 804c3000 Sz: 65536 	 Sm: 0 	 T: write_back(5.875760)
F: 21955348----T: 21964050 	 St: 806d3000 Sz: 65536 	 Sm: 0 	 T: write_back(5.875760)
F: 21981606----T: 21984692 	 St: 80453000 Sz: 12288 	 Sm: 0 	 T: memcpy_h2d(2.083727)
F: 21984692----T: 21999450 	 St: 80456000 Sz: 118784 	 Sm: 0 	 T: memcpy_h2d(9.964889)
F: 21999450----T: 22008152 	 St: 80663000 Sz: 65536 	 Sm: 0 	 T: memcpy_h2d(5.875760)
F: 22000626----T: 22009328 	 St: 806f3000 Sz: 65536 	 Sm: 0 	 T: write_back(5.875760)
F: 22008152----T: 22011238 	 St: 80473000 Sz: 12288 	 Sm: 0 	 T: memcpy_h2d(2.083727)
F: 22009328----T: 22018030 	 St: 80703000 Sz: 65536 	 Sm: 0 	 T: write_back(5.875760)
F: 22011238----T: 22018560 	 St: 80476000 Sz: 53248 	 Sm: 0 	 T: memcpy_h2d(4.943957)
F: 22018030----T: 22026732 	 St: 804f3000 Sz: 65536 	 Sm: 0 	 T: write_back(5.875760)
F: 22018560----T: 22034723 	 St: 804b3000 Sz: 131072 	 Sm: 0 	 T: memcpy_h2d(10.913572)
F: 22026732----T: 22035434 	 St: 804e3000 Sz: 65536 	 Sm: 0 	 T: write_back(5.875760)
F: 22035434----T: 22051597 	 St: 806c3000 Sz: 131072 	 Sm: 0 	 T: memcpy_h2d(10.913572)
F: 22035434----T: 22044136 	 St: 80713000 Sz: 65536 	 Sm: 0 	 T: write_back(5.875760)
F: 22044136----T: 22052838 	 St: 80513000 Sz: 65536 	 Sm: 0 	 T: write_back(5.875760)
F: 22051597----T: 22054202 	 St: 80673000 Sz: 4096 	 Sm: 0 	 T: memcpy_h2d(1.758947)
F: 22052838----T: 22061540 	 St: 80723000 Sz: 65536 	 Sm: 0 	 T: write_back(5.875760)
F: 22054202----T: 22062442 	 St: 80674000 Sz: 61440 	 Sm: 0 	 T: memcpy_h2d(5.563808)
F: 22061540----T: 22070242 	 St: 80763000 Sz: 65536 	 Sm: 0 	 T: write_back(5.875760)
F: 22062442----T: 22078605 	 St: 806f3000 Sz: 131072 	 Sm: 0 	 T: memcpy_h2d(10.913572)
F: 22070242----T: 22078944 	 St: 80563000 Sz: 65536 	 Sm: 0 	 T: write_back(5.875760)
F: 22078605----T: 22083246 	 St: 804e3000 Sz: 28672 	 Sm: 0 	 T: memcpy_h2d(3.133693)
F: 22078945----T: 22087647 	 St: 80773000 Sz: 65536 	 Sm: 0 	 T: write_back(5.875760)
F: 22083246----T: 22088761 	 St: 804ea000 Sz: 36864 	 Sm: 0 	 T: memcpy_h2d(3.723835)
F: 22087647----T: 22096349 	 St: 80793000 Sz: 65536 	 Sm: 0 	 T: write_back(5.875760)
F: 22088761----T: 22097463 	 St: 80713000 Sz: 65536 	 Sm: 0 	 T: memcpy_h2d(5.875760)
F: 22096349----T: 22105051 	 St: 80783000 Sz: 65536 	 Sm: 0 	 T: write_back(5.875760)
F: 22097463----T: 22101682 	 St: 804f3000 Sz: 24576 	 Sm: 0 	 T: memcpy_h2d(2.848751)
F: 22101682----T: 22107643 	 St: 804f9000 Sz: 40960 	 Sm: 0 	 T: memcpy_h2d(4.024983)
F: 22105051----T: 22113753 	 St: 80573000 Sz: 65536 	 Sm: 0 	 T: write_back(5.875760)
F: 22107643----T: 22116345 	 St: 80563000 Sz: 65536 	 Sm: 0 	 T: memcpy_h2d(5.875760)
F: 22113753----T: 22122455 	 St: 803a3000 Sz: 65536 	 Sm: 0 	 T: write_back(5.875760)
F: 22116345----T: 22132508 	 St: 80763000 Sz: 131072 	 Sm: 0 	 T: memcpy_h2d(10.913572)
F: 22122455----T: 22131157 	 St: 803b3000 Sz: 65536 	 Sm: 0 	 T: write_back(5.875760)
F: 22131157----T: 22147320 	 St: 803c3000 Sz: 131072 	 Sm: 0 	 T: write_back(10.913572)
F: 22132508----T: 22135113 	 St: 80513000 Sz: 4096 	 Sm: 0 	 T: memcpy_h2d(1.758947)
F: 22135113----T: 22143353 	 St: 80514000 Sz: 61440 	 Sm: 0 	 T: memcpy_h2d(5.563808)
F: 22143353----T: 22159516 	 St: 80783000 Sz: 131072 	 Sm: 0 	 T: memcpy_h2d(10.913572)
F: 22147320----T: 22156022 	 St: 80403000 Sz: 65536 	 Sm: 0 	 T: write_back(5.875760)
F: 22156022----T: 22164724 	 St: 803f3000 Sz: 65536 	 Sm: 0 	 T: write_back(5.875760)
F: 22164724----T: 22173426 	 St: 803e3000 Sz: 65536 	 Sm: 0 	 T: write_back(5.875760)
F: 22173426----T: 22204619 	 St: 803a3000 Sz: 262144 	 Sm: 0 	 T: memcpy_h2d(21.062120)
F: 22173426----T: 22182128 	 St: 80413000 Sz: 65536 	 Sm: 0 	 T: write_back(5.875760)
F: 22182128----T: 22190830 	 St: 805b3000 Sz: 65536 	 Sm: 0 	 T: write_back(5.875760)
F: 22190831----T: 22199533 	 St: 805e3000 Sz: 65536 	 Sm: 0 	 T: write_back(5.875760)
F: 22204619----T: 22207224 	 St: 80723000 Sz: 4096 	 Sm: 0 	 T: memcpy_h2d(1.758947)
F: 22207224----T: 22215464 	 St: 80724000 Sz: 61440 	 Sm: 0 	 T: memcpy_h2d(5.563808)
F: 22215464----T: 22218069 	 St: 80573000 Sz: 4096 	 Sm: 0 	 T: memcpy_h2d(1.758947)
F: 22218069----T: 22226309 	 St: 80574000 Sz: 61440 	 Sm: 0 	 T: memcpy_h2d(5.563808)
F: 22452561----T: 22777319 	 	 	 Kl: 40 	 Sm: 0 	 T: kernel_launch(219.282913)
F: 22452992----T: 22456422 	 St: 805b3000 Sz: 16384 	 Sm: 0 	 T: memcpy_h2d(2.316003)
F: 22452992----T: 22461694 	 St: 80453000 Sz: 65536 	 Sm: 0 	 T: write_back(5.875760)
F: 22456422----T: 22459027 	 St: 805b7000 Sz: 4096 	 Sm: 0 	 T: memcpy_h2d(1.758947)
F: 22459027----T: 22465439 	 St: 805b8000 Sz: 45056 	 Sm: 0 	 T: memcpy_h2d(4.329507)
F: 22461695----T: 22470397 	 St: 80463000 Sz: 65536 	 Sm: 0 	 T: write_back(5.875760)
F: 22465439----T: 22474141 	 St: 805e3000 Sz: 65536 	 Sm: 0 	 T: memcpy_h2d(5.875760)
F: 22475788----T: 22479218 	 St: 803e3000 Sz: 16384 	 Sm: 0 	 T: memcpy_h2d(2.316003)
F: 22475788----T: 22484490 	 St: 80483000 Sz: 65536 	 Sm: 0 	 T: write_back(5.875760)
F: 22479218----T: 22486083 	 St: 803e7000 Sz: 49152 	 Sm: 0 	 T: memcpy_h2d(4.635382)
F: 22484490----T: 22493192 	 St: 80683000 Sz: 65536 	 Sm: 0 	 T: write_back(5.875760)
F: 22493192----T: 22509355 	 St: 80453000 Sz: 131072 	 Sm: 0 	 T: memcpy_h2d(10.913572)
F: 22493192----T: 22501894 	 St: 80693000 Sz: 65536 	 Sm: 0 	 T: write_back(5.875760)
F: 22501894----T: 22510596 	 St: 804a3000 Sz: 65536 	 Sm: 0 	 T: write_back(5.875760)
F: 22509355----T: 22513167 	 St: 803f3000 Sz: 20480 	 Sm: 0 	 T: memcpy_h2d(2.573936)
F: 22510596----T: 22519298 	 St: 806a3000 Sz: 65536 	 Sm: 0 	 T: write_back(5.875760)
F: 22513167----T: 22519579 	 St: 803f8000 Sz: 45056 	 Sm: 0 	 T: memcpy_h2d(4.329507)
F: 22519298----T: 22528000 	 St: 806b3000 Sz: 65536 	 Sm: 0 	 T: write_back(5.875760)
F: 22519579----T: 22528281 	 St: 80483000 Sz: 65536 	 Sm: 0 	 T: memcpy_h2d(5.875760)
F: 22528000----T: 22536702 	 St: 806f3000 Sz: 65536 	 Sm: 0 	 T: write_back(5.875760)
F: 22528281----T: 22532093 	 St: 80403000 Sz: 20480 	 Sm: 0 	 T: memcpy_h2d(2.573936)
F: 22532093----T: 22538505 	 St: 80408000 Sz: 45056 	 Sm: 0 	 T: memcpy_h2d(4.329507)
F: 22536703----T: 22545405 	 St: 80703000 Sz: 65536 	 Sm: 0 	 T: write_back(5.875760)
F: 22538505----T: 22541591 	 St: 80413000 Sz: 12288 	 Sm: 0 	 T: memcpy_h2d(2.083727)
F: 22541591----T: 22544391 	 St: 80416000 Sz: 8192 	 Sm: 0 	 T: memcpy_h2d(1.890614)
F: 22544391----T: 22550803 	 St: 80418000 Sz: 45056 	 Sm: 0 	 T: memcpy_h2d(4.329507)
F: 22550803----T: 22553408 	 St: 80683000 Sz: 4096 	 Sm: 0 	 T: memcpy_h2d(1.758947)
F: 22553408----T: 22561648 	 St: 80684000 Sz: 61440 	 Sm: 0 	 T: memcpy_h2d(5.563808)
F: 22554498----T: 22563200 	 St: 80513000 Sz: 65536 	 Sm: 0 	 T: write_back(5.875760)
F: 22561648----T: 22564253 	 St: 80693000 Sz: 4096 	 Sm: 0 	 T: memcpy_h2d(1.758947)
F: 22563200----T: 22571902 	 St: 80713000 Sz: 65536 	 Sm: 0 	 T: write_back(5.875760)
F: 22564253----T: 22572493 	 St: 80694000 Sz: 61440 	 Sm: 0 	 T: memcpy_h2d(5.563808)
F: 22571902----T: 22580604 	 St: 80533000 Sz: 65536 	 Sm: 0 	 T: write_back(5.875760)
F: 22572493----T: 22588656 	 St: 806f3000 Sz: 131072 	 Sm: 0 	 T: memcpy_h2d(10.913572)
F: 22580604----T: 22589306 	 St: 80523000 Sz: 65536 	 Sm: 0 	 T: write_back(5.875760)
F: 22588656----T: 22597358 	 St: 80513000 Sz: 65536 	 Sm: 0 	 T: memcpy_h2d(5.875760)
F: 22589306----T: 22598008 	 St: 80733000 Sz: 65536 	 Sm: 0 	 T: write_back(5.875760)
F: 22597358----T: 22599963 	 St: 806a3000 Sz: 4096 	 Sm: 0 	 T: memcpy_h2d(1.758947)
F: 22598009----T: 22606711 	 St: 80743000 Sz: 65536 	 Sm: 0 	 T: write_back(5.875760)
F: 22599963----T: 22608203 	 St: 806a4000 Sz: 61440 	 Sm: 0 	 T: memcpy_h2d(5.563808)
F: 22606711----T: 22615413 	 St: 80553000 Sz: 65536 	 Sm: 0 	 T: write_back(5.875760)
F: 22608203----T: 22616905 	 St: 80713000 Sz: 65536 	 Sm: 0 	 T: memcpy_h2d(5.875760)
F: 22615413----T: 22624115 	 St: 80753000 Sz: 65536 	 Sm: 0 	 T: write_back(5.875760)
F: 22616905----T: 22633068 	 St: 80523000 Sz: 131072 	 Sm: 0 	 T: memcpy_h2d(10.913572)
F: 22624115----T: 22632817 	 St: 80543000 Sz: 65536 	 Sm: 0 	 T: write_back(5.875760)
F: 22632817----T: 22641519 	 St: 80793000 Sz: 65536 	 Sm: 0 	 T: write_back(5.875760)
F: 22633068----T: 22635673 	 St: 806b3000 Sz: 4096 	 Sm: 0 	 T: memcpy_h2d(1.758947)
F: 22635673----T: 22643913 	 St: 806b4000 Sz: 61440 	 Sm: 0 	 T: memcpy_h2d(5.563808)
F: 22641519----T: 22650221 	 St: 80563000 Sz: 65536 	 Sm: 0 	 T: write_back(5.875760)
F: 22643913----T: 22660076 	 St: 80733000 Sz: 131072 	 Sm: 0 	 T: memcpy_h2d(10.913572)
F: 22650221----T: 22658923 	 St: 80763000 Sz: 65536 	 Sm: 0 	 T: write_back(5.875760)
F: 22658923----T: 22667625 	 St: 80573000 Sz: 65536 	 Sm: 0 	 T: write_back(5.875760)
F: 22660076----T: 22662681 	 St: 804a3000 Sz: 4096 	 Sm: 0 	 T: memcpy_h2d(1.758947)
F: 22662681----T: 22670921 	 St: 804a4000 Sz: 61440 	 Sm: 0 	 T: memcpy_h2d(5.563808)
F: 22667625----T: 22676327 	 St: 80773000 Sz: 65536 	 Sm: 0 	 T: write_back(5.875760)
F: 22670921----T: 22687084 	 St: 80543000 Sz: 131072 	 Sm: 0 	 T: memcpy_h2d(10.913572)
F: 22676327----T: 22692490 	 St: 80583000 Sz: 131072 	 Sm: 0 	 T: write_back(10.913572)
F: 22687084----T: 22695786 	 St: 80753000 Sz: 65536 	 Sm: 0 	 T: memcpy_h2d(5.875760)
F: 22695786----T: 22704488 	 St: 80793000 Sz: 65536 	 Sm: 0 	 T: memcpy_h2d(5.875760)
F: 22696905----T: 22705607 	 St: 80603000 Sz: 65536 	 Sm: 0 	 T: write_back(5.875760)
F: 22705607----T: 22714309 	 St: 803e3000 Sz: 65536 	 Sm: 0 	 T: write_back(5.875760)
F: 22714309----T: 22723011 	 St: 80613000 Sz: 65536 	 Sm: 0 	 T: write_back(5.875760)
F: 22723011----T: 22754204 	 St: 80563000 Sz: 262144 	 Sm: 0 	 T: memcpy_h2d(21.062120)
F: 22723011----T: 22739174 	 St: 805e3000 Sz: 131072 	 Sm: 0 	 T: write_back(10.913572)
F: 22739175----T: 22747877 	 St: 80423000 Sz: 65536 	 Sm: 0 	 T: write_back(5.875760)
F: 22754204----T: 22757634 	 St: 80763000 Sz: 16384 	 Sm: 0 	 T: memcpy_h2d(2.316003)
F: 22757634----T: 22771924 	 St: 80767000 Sz: 114688 	 Sm: 0 	 T: memcpy_h2d(9.648886)
F: 22777319----T: 22779924 	 St: 0 Sz: 4096 	 Sm: 0 	 T: device_sync(1.758947)
F: 22777319----T: 22785559 	 St: 0 Sz: 61440 	 Sm: 0 	 T: device_sync(5.563808)
F: 22788164----T: 22790769 	 St: 0 Sz: 4096 	 Sm: 0 	 T: device_sync(1.758947)
F: 22788164----T: 22796404 	 St: 0 Sz: 61440 	 Sm: 0 	 T: device_sync(5.563808)
F: 22799009----T: 22801614 	 St: 0 Sz: 4096 	 Sm: 0 	 T: device_sync(1.758947)
F: 22799009----T: 22814704 	 St: 0 Sz: 126976 	 Sm: 0 	 T: device_sync(10.597569)
F: 22817309----T: 22819914 	 St: 0 Sz: 4096 	 Sm: 0 	 T: device_sync(1.758947)
F: 22817309----T: 22848032 	 St: 0 Sz: 258048 	 Sm: 0 	 T: device_sync(20.744766)
F: 22850637----T: 22853242 	 St: 0 Sz: 4096 	 Sm: 0 	 T: device_sync(1.758947)
F: 22850637----T: 22911473 	 St: 0 Sz: 520192 	 Sm: 0 	 T: device_sync(41.077652)
F: 22914078----T: 22916683 	 St: 0 Sz: 4096 	 Sm: 0 	 T: device_sync(1.758947)
F: 22914078----T: 23035167 	 St: 0 Sz: 1044480 	 Sm: 0 	 T: device_sync(81.761650)
F: 23037772----T: 23040377 	 St: 0 Sz: 4096 	 Sm: 0 	 T: device_sync(1.758947)
F: 23037772----T: 23046012 	 St: 0 Sz: 61440 	 Sm: 0 	 T: device_sync(5.563808)
F: 23048617----T: 23051222 	 St: 0 Sz: 4096 	 Sm: 0 	 T: device_sync(1.758947)
F: 23048617----T: 23056857 	 St: 0 Sz: 61440 	 Sm: 0 	 T: device_sync(5.563808)
F: 23059462----T: 23062067 	 St: 0 Sz: 4096 	 Sm: 0 	 T: device_sync(1.758947)
F: 23059462----T: 23075157 	 St: 0 Sz: 126976 	 Sm: 0 	 T: device_sync(10.597569)
F: 23077762----T: 23080367 	 St: 0 Sz: 4096 	 Sm: 0 	 T: device_sync(1.758947)
F: 23077762----T: 23108485 	 St: 0 Sz: 258048 	 Sm: 0 	 T: device_sync(20.744766)
F: 23111090----T: 23113695 	 St: 0 Sz: 4096 	 Sm: 0 	 T: device_sync(1.758947)
F: 23111090----T: 23119330 	 St: 0 Sz: 61440 	 Sm: 0 	 T: device_sync(5.563808)
Tot_prefetch_time: 0(cycle), 0.000000(us)
Tot_kernel_exec_time: 13891319(cycle), 9379.688477(us)
Tot_kernel_exec_time_and_fault_time: 32085404(cycle), 21664.689453(us)
Tot_memcpy_h2d_time: 10794253(cycle), 7288.489746(us)
Tot_memcpy_d2h_time: 0(cycle), 0.000000(us)
Tot_memcpy_time: 10794253(cycle), 7288.489746(us)
Tot_devicesync_time: 344616(cycle), 232.691422(us)
Tot_writeback_time: 10500928(cycle), 7090.430664(us)
Tot_rdma_time: 0(cycle), 0.000000(us)
Tot_memcpy_d2h_sync_wb_time: 10845544(cycle), 7323.122070(us)
GPGPU-Sim: *** exit detected ***
