

        *** GPGPU-Sim Simulator Version 3.2.2  [build gpgpu-sim_git-commit-ccc09f1cf63a6cc8b61cc8f41f59ef817e0fb5a2_modified_0] ***


GPGPU-Sim PTX: simulation mode 0 (can change with PTX_SIM_MODE_FUNC environment variable:
               1=functional simulation only, 0=detailed performance simulator)
GPGPU-Sim: Configuration options:

-network_mode                           1 # Interconnection network mode
-inter_config_file   config_fermi_islip.icnt # Interconnection network config file
-gpgpu_ptx_use_cuobjdump                    1 # Use cuobjdump to extract ptx and sass from binaries
-gpgpu_experimental_lib_support                    0 # Try to extract code from cuda libraries [Broken because of unknown cudaGetExportTable]
-gpgpu_ptx_convert_to_ptxplus                    0 # Convert SASS (native ISA) to ptxplus and run ptxplus
-gpgpu_ptx_force_max_capability                   20 # Force maximum compute capability
-gpgpu_ptx_inst_debug_to_file                    0 # Dump executed instructions' debug information to file
-gpgpu_ptx_inst_debug_file       inst_debug.txt # Executed instructions' debug output file
-gpgpu_ptx_inst_debug_thread_uid                    1 # Thread UID for executed instructions' debug output
-gpgpu_simd_model                       1 # 1 = post-dominator
-gpgpu_shader_core_pipeline              2048:32 # shader core pipeline config, i.e., {<nthread>:<warpsize>}
-gpgpu_tex_cache:l1  16:128:24,L:R:m:N:L,F:128:4,128:2 # per-shader L1 texture cache  (READ-ONLY) config  {<nsets>:<bsize>:<assoc>,<rep>:<wr>:<alloc>:<wr_alloc>,<mshr>:<N>:<merge>,<mq>:<rf>}
-gpgpu_const_cache:l1 128:64:2,L:R:f:N:L,A:2:64,4 # per-shader L1 constant memory cache  (READ-ONLY) config  {<nsets>:<bsize>:<assoc>,<rep>:<wr>:<alloc>:<wr_alloc>,<mshr>:<N>:<merge>,<mq>} 
-gpgpu_cache:il1     8:128:4,L:R:f:N:L,A:2:48,4 # shader L1 instruction cache config  {<nsets>:<bsize>:<assoc>,<rep>:<wr>:<alloc>:<wr_alloc>,<mshr>:<N>:<merge>,<mq>} 
-gpgpu_cache:dl1     64:128:6,L:L:m:N:H,A:128:8,8 # per-shader L1 data cache config  {<nsets>:<bsize>:<assoc>,<rep>:<wr>:<alloc>:<wr_alloc>,<mshr>:<N>:<merge>,<mq> | none}
-gpgpu_cache:dl1PrefL1                 none # per-shader L1 data cache config  {<nsets>:<bsize>:<assoc>,<rep>:<wr>:<alloc>:<wr_alloc>,<mshr>:<N>:<merge>,<mq> | none}
-gpgpu_cache:dl1PrefShared                 none # per-shader L1 data cache config  {<nsets>:<bsize>:<assoc>,<rep>:<wr>:<alloc>:<wr_alloc>,<mshr>:<N>:<merge>,<mq> | none}
-gmem_skip_L1D                          1 # global memory access skip L1D cache (implements -Xptxas -dlcm=cg, default=no skip)
-gpgpu_perfect_mem                      0 # enable perfect memory mode (no cache miss)
-n_regfile_gating_group                    4 # group of lanes that should be read/written together)
-gpgpu_clock_gated_reg_file                    0 # enable clock gated reg file for power calculations
-gpgpu_clock_gated_lanes                    0 # enable clock gated lanes for power calculations
-gpgpu_shader_registers                65536 # Number of registers per shader core. Limits number of concurrent CTAs. (default 8192)
-gpgpu_shader_cta                      32 # Maximum number of concurrent CTAs in shader (default 8)
-gpgpu_num_cta_barriers                   16 # Maximum number of named barriers per CTA (default 16)
-gpgpu_n_clusters                      28 # number of processing clusters
-gpgpu_n_cores_per_cluster                    1 # number of simd cores per cluster
-gpgpu_n_cluster_ejection_buffer_size                    8 # number of packets in ejection buffer
-gpgpu_n_ldst_response_buffer_size                    2 # number of response packets in ld/st unit ejection buffer
-gpgpu_shmem_size                   16384 # Size of shared memory per shader core (default 16kB)
-gpgpu_shmem_size                   98304 # Size of shared memory per shader core (default 16kB)
-gpgpu_shmem_size_PrefL1                16384 # Size of shared memory per shader core (default 16kB)
-gpgpu_shmem_size_PrefShared                16384 # Size of shared memory per shader core (default 16kB)
-gpgpu_shmem_num_banks                   32 # Number of banks in the shared memory in each shader core (default 16)
-gpgpu_shmem_limited_broadcast                    0 # Limit shared memory to do one broadcast per cycle (default on)
-gpgpu_shmem_warp_parts                    1 # Number of portions a warp is divided into for shared memory bank conflict check 
-gpgpu_warpdistro_shader                   -1 # Specify which shader core to collect the warp size distribution from
-gpgpu_warp_issue_shader                    0 # Specify which shader core to collect the warp issue distribution from
-gpgpu_local_mem_map                    1 # Mapping from local memory space address to simulated GPU physical address space (default = enabled)
-gpgpu_num_reg_banks                   32 # Number of register banks (default = 8)
-gpgpu_reg_bank_use_warp_id                    0 # Use warp ID in mapping registers to banks (default = off)
-gpgpu_operand_collector_num_units_sp                   20 # number of collector units (default = 4)
-gpgpu_operand_collector_num_units_sfu                    4 # number of collector units (default = 4)
-gpgpu_operand_collector_num_units_mem                    8 # number of collector units (default = 2)
-gpgpu_operand_collector_num_units_gen                    0 # number of collector units (default = 0)
-gpgpu_operand_collector_num_in_ports_sp                    4 # number of collector unit in ports (default = 1)
-gpgpu_operand_collector_num_in_ports_sfu                    1 # number of collector unit in ports (default = 1)
-gpgpu_operand_collector_num_in_ports_mem                    1 # number of collector unit in ports (default = 1)
-gpgpu_operand_collector_num_in_ports_gen                    0 # number of collector unit in ports (default = 0)
-gpgpu_operand_collector_num_out_ports_sp                    4 # number of collector unit in ports (default = 1)
-gpgpu_operand_collector_num_out_ports_sfu                    1 # number of collector unit in ports (default = 1)
-gpgpu_operand_collector_num_out_ports_mem                    1 # number of collector unit in ports (default = 1)
-gpgpu_operand_collector_num_out_ports_gen                    0 # number of collector unit in ports (default = 0)
-gpgpu_coalesce_arch                   13 # Coalescing arch (default = 13, anything else is off for now)
-gpgpu_num_sched_per_core                    2 # Number of warp schedulers per core
-gpgpu_max_insn_issue_per_warp                    2 # Max number of instructions that can be issued per warp in one cycle by scheduler
-gpgpu_simt_core_sim_order                    1 # Select the simulation order of cores in a cluster (0=Fix, 1=Round-Robin)
-gpgpu_pipeline_widths        4,1,1,4,1,1,6 # Pipeline widths ID_OC_SP,ID_OC_SFU,ID_OC_MEM,OC_EX_SP,OC_EX_SFU,OC_EX_MEM,EX_WB
-gpgpu_num_sp_units                     4 # Number of SP units (default=1)
-gpgpu_num_sfu_units                    1 # Number of SF units (default=1)
-gpgpu_num_mem_units                    1 # Number if ldst units (default=1) WARNING: not hooked up to anything
-gpgpu_scheduler                      gto # Scheduler configuration: < lrr | gto | two_level_active > If two_level_active:<num_active_warps>:<inner_prioritization>:<outer_prioritization>For complete list of prioritization values see shader.h enum scheduler_prioritization_typeDefault: gto
-gpgpu_concurrent_kernel_sm                    0 # Support concurrent kernels on a SM (default = disabled)
-tlb_size                            4096 # Number of tlb entries per SM.
-gpgpu_dram_scheduler                    1 # 0 = fifo, 1 = FR-FCFS (defaul)
-gpgpu_dram_partition_queues              8:8:8:8 # i2$:$2d:d2$:$2i
-l2_ideal                               0 # Use a ideal L2 cache that always hit
-gpgpu_cache:dl2     64:128:16,L:B:m:W:L,A:1024:1024,4:0,32 # unified banked L2 data cache config  {<nsets>:<bsize>:<assoc>,<rep>:<wr>:<alloc>:<wr_alloc>,<mshr>:<N>:<merge>,<mq>}
-gpgpu_cache:dl2_texture_only                    0 # L2 cache used for texture only
-gpgpu_n_mem                           11 # number of memory modules (e.g. memory controllers) in gpu
-gpgpu_n_sub_partition_per_mchannel                    2 # number of memory subpartition in each memory module
-gpgpu_n_mem_per_ctrlr                    1 # number of memory chips per memory controller
-gpgpu_memlatency_stat                   14 # track and display latency statistics 0x2 enables MC, 0x4 enables queue logs
-gpgpu_frfcfs_dram_sched_queue_size                   64 # 0 = unlimited (default); # entries per chip
-gpgpu_dram_return_queue_size                  116 # 0 = unlimited (default); # entries per chip
-gpgpu_dram_buswidth                    4 # default = 4 bytes (8 bytes per cycle at DDR)
-gpgpu_dram_burst_length                    8 # Burst length of each DRAM request (default = 4 data bus cycle)
-dram_data_command_freq_ratio                    4 # Frequency ratio between DRAM data bus and command bus (default = 2 times, i.e. DDR)
-gpgpu_dram_timing_opt nbk=16:CCD=2:RRD=6:RCD=12:RAS=28:RP=12:RC=40: CL=12:WL=4:CDLR=5:WR=12:nbkgrp=1:CCDL=0:RTPL=0 # DRAM timing parameters = {nbk:tCCD:tRRD:tRCD:tRAS:tRP:tRC:CL:WL:tCDLR:tWR:nbkgrp:tCCDL:tRTPL}
-rop_latency                          120 # ROP queue latency (default 85)
-dram_latency                         100 # DRAM latency (default 30)
-gpgpu_mem_addr_mapping dramid@8;00000000.00000000.00000000.00000000.0000RRRR.RRRRRRRR.RBBBCCCC.BCCSSSSS # mapping memory address to dram model {dramid@<start bit>;<memory address map>}
-gpgpu_mem_addr_test                    0 # run sweep test to check address mapping for aliased address
-gpgpu_mem_address_mask                    1 # 0 = old addressing mask, 1 = new addressing mask, 2 = new add. mask + flipped bank sel and chip sel bits
-gpuwattch_xml_file  gpuwattch_geforcegtx1080ti.xml # GPUWattch XML file
-power_simulation_enabled                    1 # Turn on power simulator (1=On, 0=Off)
-power_per_cycle_dump                    0 # Dump detailed power output each cycle
-power_trace_enabled                    0 # produce a file for the power trace (1=On, 0=Off)
-power_trace_zlevel                     6 # Compression level of the power trace output log (0=no comp, 9=highest)
-steady_power_levels_enabled                    0 # produce a file for the steady power levels (1=On, 0=Off)
-steady_state_definition                  8:4 # allowed deviation:number of samples
-gpgpu_max_cycle                        0 # terminates gpu simulation early (0 = no limit)
-gpgpu_max_insn                         0 # terminates gpu simulation early (0 = no limit)
-gpgpu_max_cta                          0 # terminates gpu simulation early (0 = no limit)
-gpgpu_runtime_stat                   500 # display runtime statistics such as dram utilization {<freq>:<flag>}
-liveness_message_freq                    1 # Minimum number of seconds between simulation liveness messages (0 = always print)
-gpgpu_flush_l1_cache                    0 # Flush L1 cache at the end of each kernel call
-gpgpu_flush_l2_cache                    0 # Flush L2 cache at the end of each kernel call
-gpgpu_deadlock_detect                    0 # Stop the simulation at deadlock (1=on (default), 0=off)
-gpgpu_ptx_instruction_classification                    0 # if enabled will classify ptx instruction types per kernel (Max 255 kernels now)
-gpgpu_ptx_sim_mode                     0 # Select between Performance (default) or Functional simulation (1)
-gpgpu_clock_domains 1481.0:2962.0:1481.0:2750.0 # Clock Domain Frequencies in MhZ {<Core Clock>:<ICNT Clock>:<L2 Clock>:<DRAM Clock>}
-gpgpu_max_concurrent_kernel                    8 # maximum kernels that can run concurrently on GPU
-gpgpu_cflog_interval                    0 # Interval between each snapshot in control flow logger
-visualizer_enabled                     0 # Turn on visualizer output (1=On, 0=Off)
-visualizer_outputfile                 NULL # Specifies the output log file for visualizer
-visualizer_zlevel                      6 # Compression level of the visualizer output log (0=no comp, 9=highest)
-trace_enabled                          0 # Turn on traces
-trace_components                    none # comma seperated list of traces to enable. Complete list found in trace_streams.tup. Default none
-trace_sampling_core                    0 # The core which is printed using CORE_DPRINTF. Default 0
-trace_sampling_memory_partition                   -1 # The memory partition which is printed using MEMPART_DPRINTF. Default -1 (i.e. all)
-gddr_size                       2.2691MB # Size of GDDR in MB/GB.(GLOBAL_HEAP_START, GLOBAL_HEAP_START + gddr_size) would be used for unmanged memory, (GLOBAL_HEAP_START + gddr_size, GLOBAL_HEAP_START + gddr_size*2) would be used for managed memory. 
-page_table_walk_latency                  100 # Average page table walk latency (in core cycle).
-eviction_policy                        2 # Select page eviction policy
-reserve_accessed_page_percent                    0 # Percentage of accessed pages reserved from eviction in hope that they will be accessed in next iteration.
-percentage_of_free_page_buffer                    0 # Percentage of free page buffer to trigger the page eviction.
-page_size                            4KB # GDDR page size, only 4KB/2MB avaliable.
-pcie_bandwidth                  16.0GB/s # PCI-e bandwidth per direction, in GB/s.
-enable_nvlink                          0 # Enable nvlink 2.0, 150.0GB/s
-enable_rdma                            0 # Enable remote direct memory access
-migrate_threshold                     10 # Access counter threshold for migrating the page from cpu to gpu
-sim_prof_enable                        1 # Enable gpgpu-sim profiler
-hardware_prefetch                      1 # Select gpgpu-sim hardware prefetcher
-hwprefetch_oversub                     0 # Select gpgpu-sim hardware prefetcher under over-subscription
-page_fault_latency                 66645 # Average fault latency (in core cycle).
-enable_accurate_simulation                    0 # Enable page fault functional simulation.
-enable_ptx_file_line_stats                    1 # Turn on PTX source line statistic profiling. (1 = On)
-ptx_line_stats_filename gpgpu_inst_stats.txt # Output file for PTX source line statistics.
-gpgpu_kernel_launch_latency               222150 # Kernel launch latency in cycles. Default: 0
-gpgpu_cdp_enabled                      0 # Turn on CDP
-save_embedded_ptx                      0 # saves ptx files embedded in binary as <n>.ptx
-keep                                   0 # keep intermediate files created by GPGPU-Sim when interfacing with external programs
-gpgpu_ptx_save_converted_ptxplus                    0 # Saved converted ptxplus to a file
-ptx_opcode_latency_int         4,13,4,5,145 # Opcode latencies for integers <ADD,MAX,MUL,MAD,DIV>Default 1,1,19,25,145
-ptx_opcode_latency_fp          4,13,4,5,39 # Opcode latencies for single precision floating points <ADD,MAX,MUL,MAD,DIV>Default 1,1,1,1,30
-ptx_opcode_latency_dp         8,19,8,8,330 # Opcode latencies for double precision floating points <ADD,MAX,MUL,MAD,DIV>Default 8,8,8,8,335
-ptx_opcode_initiation_int            1,2,2,2,8 # Opcode initiation intervals for integers <ADD,MAX,MUL,MAD,DIV>Default 1,1,4,4,32
-ptx_opcode_initiation_fp            1,2,1,1,4 # Opcode initiation intervals for single precision floating points <ADD,MAX,MUL,MAD,DIV>Default 1,1,1,1,5
-ptx_opcode_initiation_dp          1,2,1,1,130 # Opcode initiation intervals for double precision floating points <ADD,MAX,MUL,MAD,DIV>Default 8,8,8,8,130
-cdp_latency         7200,8000,100,12000,1600 # CDP API latency <cudaStreamCreateWithFlags, cudaGetParameterBufferV2_init_perWarp, cudaGetParameterBufferV2_perKernel, cudaLaunchDeviceV2_init_perWarp, cudaLaunchDevicV2_perKernel>Default 7200,8000,100,12000,1600
DRAM Timing Options:
nbk                                    16 # number of banks
CCD                                     2 # column to column delay
RRD                                     6 # minimal delay between activation of rows in different banks
RCD                                    12 # row to column delay
RAS                                    28 # time needed to activate row
RP                                     12 # time needed to precharge (deactivate) row
RC                                     40 # row cycle time
CDLR                                    5 # switching from write to read (changes tWTR)
WR                                     12 # last data-in to row precharge
CL                                     12 # CAS latency
WL                                      4 # Write latency
nbkgrp                                  1 # number of bank groups
CCDL                                    0 # column to column delay between accesses to different bank groups
RTPL                                    0 # read to precharge delay between accesses to different bank groups
Total number of memory sub partition = 22
addr_dec_mask[CHIP]  = 0000000000000000 	high:64 low:0
addr_dec_mask[BK]    = 0000000000007080 	high:15 low:7
addr_dec_mask[ROW]   = 000000000fff8000 	high:28 low:15
addr_dec_mask[COL]   = 0000000000000f7f 	high:12 low:0
addr_dec_mask[BURST] = 000000000000001f 	high:5 low:0
sub_partition_id_mask = 0000000000000080
GPGPU-Sim uArch: clock freqs: 1481000000.000000:2962000000.000000:1481000000.000000:2750000000.000000
GPGPU-Sim uArch: clock periods: 0.00000000067521944632:0.00000000033760972316:0.00000000067521944632:0.00000000036363636364
*** Initializing Memory Statistics ***
GPGPU-Sim uArch: interconnect node map (shaderID+MemID to icntID)
GPGPU-Sim uArch: Memory nodes ID start from index: 28
GPGPU-Sim uArch:    0   1   2   3   4   5   6
GPGPU-Sim uArch:    7   8   9  10  11  12  13
GPGPU-Sim uArch:   14  15  16  17  18  19  20
GPGPU-Sim uArch:   21  22  23  24  25  26  27
GPGPU-Sim uArch:   28  29  30  31  32  33  34
GPGPU-Sim uArch:   35  36  37  38  39  40  41
GPGPU-Sim uArch:   42  43  44  45  46  47  48
GPGPU-Sim uArch:   49
GPGPU-Sim uArch: interconnect node reverse map (icntID to shaderID+MemID)
GPGPU-Sim uArch: Memory nodes start from ID: 28
GPGPU-Sim uArch:    0   1   2   3   4   5   6
GPGPU-Sim uArch:    7   8   9  10  11  12  13
GPGPU-Sim uArch:   14  15  16  17  18  19  20
GPGPU-Sim uArch:   21  22  23  24  25  26  27
GPGPU-Sim uArch:   28  29  30  31  32  33  34
GPGPU-Sim uArch:   35  36  37  38  39  40  41
GPGPU-Sim uArch:   42  43  44  45  46  47  48
GPGPU-Sim uArch:   49
e50125205819393dfff260e6f5acb8f8  /home/gpuser/Desktop/gpgpu-sim_UVMSmart/benchmarks/Managed/bfs/bfs
GPGPU-Sim uArch: performance model initialization complete.
GPGPU-Sim PTX: __cudaRegisterFatBinary, fat_cubin_handle = 1, filename=default
self exe links to: /home/gpuser/Desktop/gpgpu-sim_UVMSmart/benchmarks/Managed/bfs/bfs
Running md5sum using "md5sum /home/gpuser/Desktop/gpgpu-sim_UVMSmart/benchmarks/Managed/bfs/bfs "
Parsing file _cuobjdump_complete_output_6ZdOQg
######### cuobjdump parser ########
## Adding new section ELF
Adding arch: sm_20
Adding identifier: default
## Adding new section ELF
Adding arch: sm_20
Adding identifier: default
## Adding new section PTX
Adding ptx filename: _cuobjdump_1.ptx
Adding arch: sm_20
Adding identifier: default
Done parsing!!!
GPGPU-Sim PTX: __cudaRegisterFunction _Z7Kernel2PbS_S_S_i : hostFun 0x0x401649, fat_cubin_handle = 1
GPGPU-Sim PTX: instruction assembly for function '_Z6KernelP4NodePiPbS2_S2_S1_i'...   done.
GPGPU-Sim PTX: finding reconvergence points for '_Z6KernelP4NodePiPbS2_S2_S1_i'...
GPGPU-Sim PTX: Finding dominators for '_Z6KernelP4NodePiPbS2_S2_S1_i'...
GPGPU-Sim PTX: Finding immediate dominators for '_Z6KernelP4NodePiPbS2_S2_S1_i'...
GPGPU-Sim PTX: Finding postdominators for '_Z6KernelP4NodePiPbS2_S2_S1_i'...
GPGPU-Sim PTX: Finding immediate postdominators for '_Z6KernelP4NodePiPbS2_S2_S1_i'...
GPGPU-Sim PTX: pre-decoding instructions for '_Z6KernelP4NodePiPbS2_S2_S1_i'...
GPGPU-Sim PTX: reconvergence points for _Z6KernelP4NodePiPbS2_S2_S1_i...
GPGPU-Sim PTX:  1 (potential) branch divergence @  PC=0x060 (_1.ptx:42) @%p1 bra BB0_7;
GPGPU-Sim PTX:    immediate post dominator      @  PC=0x1e8 (_1.ptx:101) ret;
GPGPU-Sim PTX:  2 (potential) branch divergence @  PC=0x090 (_1.ptx:49) @%p2 bra BB0_7;
GPGPU-Sim PTX:    immediate post dominator      @  PC=0x1e8 (_1.ptx:101) ret;
GPGPU-Sim PTX:  3 (potential) branch divergence @  PC=0x0d8 (_1.ptx:59) @%p3 bra BB0_7;
GPGPU-Sim PTX:    immediate post dominator      @  PC=0x1e8 (_1.ptx:101) ret;
GPGPU-Sim PTX:  4 (potential) branch divergence @  PC=0x160 (_1.ptx:79) @%p4 bra BB0_6;
GPGPU-Sim PTX:    immediate post dominator      @  PC=0x1b8 (_1.ptx:93) mov.u32 %r24, %r25;
GPGPU-Sim PTX:  5 (potential) branch divergence @  PC=0x1e0 (_1.ptx:98) @%p5 bra BB0_4;
GPGPU-Sim PTX:    immediate post dominator      @  PC=0x1e8 (_1.ptx:101) ret;
GPGPU-Sim PTX: ... end of reconvergence points for _Z6KernelP4NodePiPbS2_S2_S1_i
GPGPU-Sim PTX: ... done pre-decoding instructions for '_Z6KernelP4NodePiPbS2_S2_S1_i'.
GPGPU-Sim PTX: instruction assembly for function '_Z7Kernel2PbS_S_S_i'...   done.
GPGPU-Sim PTX: finding reconvergence points for '_Z7Kernel2PbS_S_S_i'...
GPGPU-Sim PTX: Finding dominators for '_Z7Kernel2PbS_S_S_i'...
GPGPU-Sim PTX: Finding immediate dominators for '_Z7Kernel2PbS_S_S_i'...
GPGPU-Sim PTX: Finding postdominators for '_Z7Kernel2PbS_S_S_i'...
GPGPU-Sim PTX: Finding immediate postdominators for '_Z7Kernel2PbS_S_S_i'...
GPGPU-Sim PTX: pre-decoding instructions for '_Z7Kernel2PbS_S_S_i'...
GPGPU-Sim PTX: reconvergence points for _Z7Kernel2PbS_S_S_i...
GPGPU-Sim PTX:  1 (potential) branch divergence @  PC=0x240 (_1.ptx:129) @%p1 bra BB1_3;
GPGPU-Sim PTX:    immediate post dominator      @  PC=0x2d0 (_1.ptx:151) ret;
GPGPU-Sim PTX:  2 (potential) branch divergence @  PC=0x270 (_1.ptx:136) @%p2 bra BB1_3;
GPGPU-Sim PTX:    immediate post dominator      @  PC=0x2d0 (_1.ptx:151) ret;
GPGPU-Sim PTX: ... end of reconvergence points for _Z7Kernel2PbS_S_S_i
GPGPU-Sim PTX: ... done pre-decoding instructions for '_Z7Kernel2PbS_S_S_i'.
GPGPU-Sim PTX: finished parsing EMBEDDED .ptx file _1.ptx
Adding _cuobjdump_1.ptx with cubin handle 1
GPGPU-Sim PTX: extracting embedded .ptx to temporary file "_ptx_aKWlYQ"
Running: cat _ptx_aKWlYQ | sed 's/.version 1.5/.version 1.4/' | sed 's/, texmode_independent//' | sed 's/\(\.extern \.const\[1\] .b8 \w\+\)\[\]/\1\[1\]/' | sed 's/const\[.\]/const\[0\]/g' > _ptx2_SIFU5q
GPGPU-Sim PTX: generating ptxinfo using "$CUDA_INSTALL_PATH/bin/ptxas --gpu-name=sm_20 -v _ptx2_SIFU5q --output-file  /dev/null 2> _ptx_aKWlYQinfo"
GPGPU-Sim PTX: Kernel '_Z7Kernel2PbS_S_S_i' : regs=12, lmem=0, smem=0, cmem=68
GPGPU-Sim PTX: Kernel '_Z6KernelP4NodePiPbS2_S2_S1_i' : regs=15, lmem=0, smem=0, cmem=84
GPGPU-Sim PTX: removing ptxinfo using "rm -f _ptx_aKWlYQ _ptx2_SIFU5q _ptx_aKWlYQinfo"
GPGPU-Sim PTX: loading globals with explicit initializers... 
GPGPU-Sim PTX: finished loading globals (0 bytes total).
GPGPU-Sim PTX: loading constants with explicit initializers...  done.
GPGPU-Sim PTX: __cudaRegisterFunction _Z6KernelP4NodePiPbS2_S2_S1_i : hostFun 0x0x401519, fat_cubin_handle = 1
Reading File
Read File
Copied Everything to GPU memory
Start traversing the tree

GPGPU-Sim PTX: cudaLaunch for 0x0x401519 (mode=performance simulation) on stream 0
GPGPU-Sim PTX: pushing kernel '_Z6KernelP4NodePiPbS2_S2_S1_i' to stream 0, gridDim= (128,1,1) blockDim = (512,1,1) 
GPGPU-Sim uArch: Shader 1 bind to kernel 1 '_Z6KernelP4NodePiPbS2_S2_S1_i'
GPGPU-Sim uArch: CTA/core = 4, limited by: threads
GPGPU-Sim uArch: Shader 2 bind to kernel 1 '_Z6KernelP4NodePiPbS2_S2_S1_i'
GPGPU-Sim uArch: Shader 3 bind to kernel 1 '_Z6KernelP4NodePiPbS2_S2_S1_i'
GPGPU-Sim uArch: Shader 4 bind to kernel 1 '_Z6KernelP4NodePiPbS2_S2_S1_i'
GPGPU-Sim uArch: Shader 5 bind to kernel 1 '_Z6KernelP4NodePiPbS2_S2_S1_i'
GPGPU-Sim uArch: Shader 6 bind to kernel 1 '_Z6KernelP4NodePiPbS2_S2_S1_i'
GPGPU-Sim uArch: Shader 7 bind to kernel 1 '_Z6KernelP4NodePiPbS2_S2_S1_i'
GPGPU-Sim uArch: Shader 8 bind to kernel 1 '_Z6KernelP4NodePiPbS2_S2_S1_i'
GPGPU-Sim uArch: Shader 9 bind to kernel 1 '_Z6KernelP4NodePiPbS2_S2_S1_i'
GPGPU-Sim uArch: Shader 10 bind to kernel 1 '_Z6KernelP4NodePiPbS2_S2_S1_i'
GPGPU-Sim uArch: Shader 11 bind to kernel 1 '_Z6KernelP4NodePiPbS2_S2_S1_i'
GPGPU-Sim uArch: Shader 12 bind to kernel 1 '_Z6KernelP4NodePiPbS2_S2_S1_i'
GPGPU-Sim uArch: Shader 13 bind to kernel 1 '_Z6KernelP4NodePiPbS2_S2_S1_i'
GPGPU-Sim uArch: Shader 14 bind to kernel 1 '_Z6KernelP4NodePiPbS2_S2_S1_i'
GPGPU-Sim uArch: Shader 15 bind to kernel 1 '_Z6KernelP4NodePiPbS2_S2_S1_i'
GPGPU-Sim uArch: Shader 16 bind to kernel 1 '_Z6KernelP4NodePiPbS2_S2_S1_i'
GPGPU-Sim uArch: Shader 17 bind to kernel 1 '_Z6KernelP4NodePiPbS2_S2_S1_i'
GPGPU-Sim uArch: Shader 18 bind to kernel 1 '_Z6KernelP4NodePiPbS2_S2_S1_i'
GPGPU-Sim uArch: Shader 19 bind to kernel 1 '_Z6KernelP4NodePiPbS2_S2_S1_i'
GPGPU-Sim uArch: Shader 20 bind to kernel 1 '_Z6KernelP4NodePiPbS2_S2_S1_i'
GPGPU-Sim uArch: Shader 21 bind to kernel 1 '_Z6KernelP4NodePiPbS2_S2_S1_i'
GPGPU-Sim uArch: Shader 22 bind to kernel 1 '_Z6KernelP4NodePiPbS2_S2_S1_i'
GPGPU-Sim uArch: Shader 23 bind to kernel 1 '_Z6KernelP4NodePiPbS2_S2_S1_i'
GPGPU-Sim uArch: Shader 24 bind to kernel 1 '_Z6KernelP4NodePiPbS2_S2_S1_i'
GPGPU-Sim uArch: Shader 25 bind to kernel 1 '_Z6KernelP4NodePiPbS2_S2_S1_i'
GPGPU-Sim uArch: Shader 26 bind to kernel 1 '_Z6KernelP4NodePiPbS2_S2_S1_i'
GPGPU-Sim uArch: Shader 27 bind to kernel 1 '_Z6KernelP4NodePiPbS2_S2_S1_i'
GPGPU-Sim uArch: Shader 0 bind to kernel 1 '_Z6KernelP4NodePiPbS2_S2_S1_i'
GPGPU-Sim uArch: Shader 2 bind to kernel 1 '_Z6KernelP4NodePiPbS2_S2_S1_i'
GPGPU-Sim uArch: Shader 3 bind to kernel 1 '_Z6KernelP4NodePiPbS2_S2_S1_i'
GPGPU-Sim uArch: Shader 4 bind to kernel 1 '_Z6KernelP4NodePiPbS2_S2_S1_i'
GPGPU-Sim uArch: Shader 5 bind to kernel 1 '_Z6KernelP4NodePiPbS2_S2_S1_i'
GPGPU-Sim uArch: Shader 6 bind to kernel 1 '_Z6KernelP4NodePiPbS2_S2_S1_i'
GPGPU-Sim uArch: Shader 7 bind to kernel 1 '_Z6KernelP4NodePiPbS2_S2_S1_i'
GPGPU-Sim uArch: Shader 8 bind to kernel 1 '_Z6KernelP4NodePiPbS2_S2_S1_i'
GPGPU-Sim uArch: Shader 9 bind to kernel 1 '_Z6KernelP4NodePiPbS2_S2_S1_i'
GPGPU-Sim uArch: Shader 10 bind to kernel 1 '_Z6KernelP4NodePiPbS2_S2_S1_i'
GPGPU-Sim uArch: Shader 11 bind to kernel 1 '_Z6KernelP4NodePiPbS2_S2_S1_i'
GPGPU-Sim uArch: Shader 12 bind to kernel 1 '_Z6KernelP4NodePiPbS2_S2_S1_i'
GPGPU-Sim uArch: Shader 13 bind to kernel 1 '_Z6KernelP4NodePiPbS2_S2_S1_i'
GPGPU-Sim uArch: Shader 14 bind to kernel 1 '_Z6KernelP4NodePiPbS2_S2_S1_i'
GPGPU-Sim uArch: Shader 15 bind to kernel 1 '_Z6KernelP4NodePiPbS2_S2_S1_i'
GPGPU-Sim uArch: Shader 16 bind to kernel 1 '_Z6KernelP4NodePiPbS2_S2_S1_i'
Destroy streams for kernel 1: size 0
kernel_name = _Z6KernelP4NodePiPbS2_S2_S1_i 
kernel_launch_uid = 1 
gpu_sim_cycle = 93085
gpu_sim_insn = 1245376
gpu_ipc =      13.3789
gpu_tot_sim_cycle = 317771
gpu_tot_sim_insn = 1245376
gpu_tot_ipc =       3.9191
gpu_tot_issued_cta = 128
max_total_param_size = 0
gpu_stall_dramfull = 0
gpu_stall_icnt2sh    = 2214
partiton_reqs_in_parallel = 2047870
partiton_reqs_in_parallel_total    = 0
partiton_level_parallism =      22.0000
partiton_level_parallism_total  =       6.4445
partiton_reqs_in_parallel_util = 2047870
partiton_reqs_in_parallel_util_total    = 0
gpu_sim_cycle_parition_util = 93085
gpu_tot_sim_cycle_parition_util    = 0
partiton_level_parallism_util =      22.0000
partiton_level_parallism_util_total  =      22.0000
partiton_replys_in_parallel = 2220
partiton_replys_in_parallel_total    = 0
L2_BW  =       2.2605 GB/Sec
L2_BW_total  =       0.6622 GB/Sec
gpu_total_sim_rate=8193

========= Core cache stats =========
L1I_cache:
	L1I_total_cache_accesses = 22632
	L1I_total_cache_misses = 2778
	L1I_total_cache_miss_rate = 0.1227
	L1I_total_cache_pending_hits = 0
	L1I_total_cache_reservation_fails = 6846
L1D_cache:
	L1D_cache_core[0]: Access = 0, Miss = 0, Miss_rate = -nan, Pending_hits = 0, Reservation_fails = 0
	L1D_cache_core[1]: Access = 0, Miss = 0, Miss_rate = -nan, Pending_hits = 0, Reservation_fails = 0
	L1D_cache_core[2]: Access = 0, Miss = 0, Miss_rate = -nan, Pending_hits = 0, Reservation_fails = 0
	L1D_cache_core[3]: Access = 0, Miss = 0, Miss_rate = -nan, Pending_hits = 0, Reservation_fails = 0
	L1D_cache_core[4]: Access = 0, Miss = 0, Miss_rate = -nan, Pending_hits = 0, Reservation_fails = 0
	L1D_cache_core[5]: Access = 0, Miss = 0, Miss_rate = -nan, Pending_hits = 0, Reservation_fails = 0
	L1D_cache_core[6]: Access = 0, Miss = 0, Miss_rate = -nan, Pending_hits = 0, Reservation_fails = 0
	L1D_cache_core[7]: Access = 0, Miss = 0, Miss_rate = -nan, Pending_hits = 0, Reservation_fails = 0
	L1D_cache_core[8]: Access = 0, Miss = 0, Miss_rate = -nan, Pending_hits = 0, Reservation_fails = 0
	L1D_cache_core[9]: Access = 0, Miss = 0, Miss_rate = -nan, Pending_hits = 0, Reservation_fails = 0
	L1D_cache_core[10]: Access = 0, Miss = 0, Miss_rate = -nan, Pending_hits = 0, Reservation_fails = 0
	L1D_cache_core[11]: Access = 0, Miss = 0, Miss_rate = -nan, Pending_hits = 0, Reservation_fails = 0
	L1D_cache_core[12]: Access = 0, Miss = 0, Miss_rate = -nan, Pending_hits = 0, Reservation_fails = 0
	L1D_cache_core[13]: Access = 0, Miss = 0, Miss_rate = -nan, Pending_hits = 0, Reservation_fails = 0
	L1D_cache_core[14]: Access = 0, Miss = 0, Miss_rate = -nan, Pending_hits = 0, Reservation_fails = 0
	L1D_cache_core[15]: Access = 0, Miss = 0, Miss_rate = -nan, Pending_hits = 0, Reservation_fails = 0
	L1D_cache_core[16]: Access = 0, Miss = 0, Miss_rate = -nan, Pending_hits = 0, Reservation_fails = 0
	L1D_cache_core[17]: Access = 0, Miss = 0, Miss_rate = -nan, Pending_hits = 0, Reservation_fails = 0
	L1D_cache_core[18]: Access = 0, Miss = 0, Miss_rate = -nan, Pending_hits = 0, Reservation_fails = 0
	L1D_cache_core[19]: Access = 0, Miss = 0, Miss_rate = -nan, Pending_hits = 0, Reservation_fails = 0
	L1D_cache_core[20]: Access = 0, Miss = 0, Miss_rate = -nan, Pending_hits = 0, Reservation_fails = 0
	L1D_cache_core[21]: Access = 0, Miss = 0, Miss_rate = -nan, Pending_hits = 0, Reservation_fails = 0
	L1D_cache_core[22]: Access = 0, Miss = 0, Miss_rate = -nan, Pending_hits = 0, Reservation_fails = 0
	L1D_cache_core[23]: Access = 0, Miss = 0, Miss_rate = -nan, Pending_hits = 0, Reservation_fails = 0
	L1D_cache_core[24]: Access = 0, Miss = 0, Miss_rate = -nan, Pending_hits = 0, Reservation_fails = 0
	L1D_cache_core[25]: Access = 0, Miss = 0, Miss_rate = -nan, Pending_hits = 0, Reservation_fails = 0
	L1D_cache_core[26]: Access = 0, Miss = 0, Miss_rate = -nan, Pending_hits = 0, Reservation_fails = 0
	L1D_cache_core[27]: Access = 0, Miss = 0, Miss_rate = -nan, Pending_hits = 0, Reservation_fails = 0
	L1D_total_cache_accesses = 0
	L1D_total_cache_misses = 0
	L1D_total_cache_pending_hits = 0
	L1D_total_cache_reservation_fails = 0
	L1D_cache_data_port_util = 0.000
	L1D_cache_fill_port_util = 0.000
L1C_cache:
	L1C_total_cache_accesses = 14336
	L1C_total_cache_misses = 1792
	L1C_total_cache_miss_rate = 0.1250
	L1C_total_cache_pending_hits = 0
	L1C_total_cache_reservation_fails = 4886
L1T_cache:
	L1T_total_cache_accesses = 0
	L1T_total_cache_misses = 0
	L1T_total_cache_pending_hits = 0
	L1T_total_cache_reservation_fails = 0

Total_core_cache_stats:
	Total_core_cache_stats_breakdown[GLOBAL_ACC_R][HIT] = 0
	Total_core_cache_stats_breakdown[GLOBAL_ACC_R][HIT_RESERVED] = 0
	Total_core_cache_stats_breakdown[GLOBAL_ACC_R][MISS] = 0
	Total_core_cache_stats_breakdown[GLOBAL_ACC_R][RESERVATION_FAIL] = 0
	Total_core_cache_stats_breakdown[LOCAL_ACC_R][HIT] = 0
	Total_core_cache_stats_breakdown[LOCAL_ACC_R][HIT_RESERVED] = 0
	Total_core_cache_stats_breakdown[LOCAL_ACC_R][MISS] = 0
	Total_core_cache_stats_breakdown[LOCAL_ACC_R][RESERVATION_FAIL] = 0
	Total_core_cache_stats_breakdown[CONST_ACC_R][HIT] = 12544
	Total_core_cache_stats_breakdown[CONST_ACC_R][HIT_RESERVED] = 0
	Total_core_cache_stats_breakdown[CONST_ACC_R][MISS] = 1792
	Total_core_cache_stats_breakdown[CONST_ACC_R][RESERVATION_FAIL] = 4886
	Total_core_cache_stats_breakdown[TEXTURE_ACC_R][HIT] = 0
	Total_core_cache_stats_breakdown[TEXTURE_ACC_R][HIT_RESERVED] = 0
	Total_core_cache_stats_breakdown[TEXTURE_ACC_R][MISS] = 0
	Total_core_cache_stats_breakdown[TEXTURE_ACC_R][RESERVATION_FAIL] = 0
	Total_core_cache_stats_breakdown[GLOBAL_ACC_W][HIT] = 0
	Total_core_cache_stats_breakdown[GLOBAL_ACC_W][HIT_RESERVED] = 0
	Total_core_cache_stats_breakdown[GLOBAL_ACC_W][MISS] = 0
	Total_core_cache_stats_breakdown[GLOBAL_ACC_W][RESERVATION_FAIL] = 0
	Total_core_cache_stats_breakdown[LOCAL_ACC_W][HIT] = 0
	Total_core_cache_stats_breakdown[LOCAL_ACC_W][HIT_RESERVED] = 0
	Total_core_cache_stats_breakdown[LOCAL_ACC_W][MISS] = 0
	Total_core_cache_stats_breakdown[LOCAL_ACC_W][RESERVATION_FAIL] = 0
	Total_core_cache_stats_breakdown[L1_WRBK_ACC][HIT] = 0
	Total_core_cache_stats_breakdown[L1_WRBK_ACC][HIT_RESERVED] = 0
	Total_core_cache_stats_breakdown[L1_WRBK_ACC][MISS] = 0
	Total_core_cache_stats_breakdown[L1_WRBK_ACC][RESERVATION_FAIL] = 0
	Total_core_cache_stats_breakdown[L2_WRBK_ACC][HIT] = 0
	Total_core_cache_stats_breakdown[L2_WRBK_ACC][HIT_RESERVED] = 0
	Total_core_cache_stats_breakdown[L2_WRBK_ACC][MISS] = 0
	Total_core_cache_stats_breakdown[L2_WRBK_ACC][RESERVATION_FAIL] = 0
	Total_core_cache_stats_breakdown[INST_ACC_R][HIT] = 19854
	Total_core_cache_stats_breakdown[INST_ACC_R][HIT_RESERVED] = 0
	Total_core_cache_stats_breakdown[INST_ACC_R][MISS] = 2778
	Total_core_cache_stats_breakdown[INST_ACC_R][RESERVATION_FAIL] = 6846
	Total_core_cache_stats_breakdown[L1_WR_ALLOC_R][HIT] = 0
	Total_core_cache_stats_breakdown[L1_WR_ALLOC_R][HIT_RESERVED] = 0
	Total_core_cache_stats_breakdown[L1_WR_ALLOC_R][MISS] = 0
	Total_core_cache_stats_breakdown[L1_WR_ALLOC_R][RESERVATION_FAIL] = 0
	Total_core_cache_stats_breakdown[L2_WR_ALLOC_R][HIT] = 0
	Total_core_cache_stats_breakdown[L2_WR_ALLOC_R][HIT_RESERVED] = 0
	Total_core_cache_stats_breakdown[L2_WR_ALLOC_R][MISS] = 0
	Total_core_cache_stats_breakdown[L2_WR_ALLOC_R][RESERVATION_FAIL] = 0
	Total_core_cache_stats_breakdown[CONST_ACC_R][TOTAL_ACCESS] = 14336
	Total_core_cache_stats_breakdown[INST_ACC_R][TOTAL_ACCESS] = 22632
Shader 0 warp_id issue ditsribution:
warp_id:
0, 1, 2, 3, 4, 5, 6, 7, 8, 9, 10, 11, 12, 13, 14, 15, 16, 17, 18, 19, 20, 21, 22, 23, 24, 25, 26, 27, 28, 29, 30, 31, 32, 33, 34, 35, 36, 37, 38, 39, 40, 41, 42, 43, 44, 45, 46, 47, 48, 49, 50, 51, 52, 53, 54, 55, 56, 57, 58, 59, 60, 61, 62, 63, 
distro:
23, 23, 22, 23, 22, 23, 22, 23, 23, 23, 23, 23, 23, 23, 23, 23, 23, 23, 23, 23, 23, 23, 23, 23, 23, 23, 23, 23, 23, 23, 23, 23, 23, 23, 23, 23, 23, 23, 23, 23, 23, 23, 23, 23, 23, 23, 23, 23, 23, 23, 23, 23, 23, 23, 23, 23, 23, 23, 23, 23, 23, 23, 23, 23, 
gpgpu_n_tot_thrd_icount = 1317216
gpgpu_n_tot_w_icount = 41163
gpgpu_n_stall_shd_mem = 5197
gpgpu_n_mem_read_local = 0
gpgpu_n_mem_write_local = 0
gpgpu_n_mem_read_global = 2090
gpgpu_n_mem_write_global = 17
gpgpu_n_mem_texture = 0
gpgpu_n_mem_const = 28
gpgpu_n_load_insn  = 65578
gpgpu_n_store_insn = 17
gpgpu_n_shmem_insn = 0
gpgpu_n_tex_insn = 0
gpgpu_n_const_mem_insn = 0
gpgpu_n_param_mem_insn = 458752
gpgpu_n_shmem_bkconflict = 0
gpgpu_n_cache_bkconflict = 0
gpgpu_n_intrawarp_mshr_merge = 0
gpgpu_n_cmem_portconflict = 4886
gpgpu_stall_shd_mem[c_mem][bk_conf] = 4886
gpgpu_stall_shd_mem[c_mem][mshr_rc] = 0
gpgpu_stall_shd_mem[c_mem][icnt_rc] = 0
gpgpu_stall_shd_mem[c_mem][data_port_stall] = 0
gpgpu_stall_shd_mem[t_mem][mshr_rc] = 0
gpgpu_stall_shd_mem[t_mem][icnt_rc] = 0
gpgpu_stall_shd_mem[t_mem][data_port_stall] = 0
gpgpu_stall_shd_mem[s_mem][bk_conf] = 0
gpgpu_stall_shd_mem[gl_mem][bk_conf] = 0
gpgpu_stall_shd_mem[gl_mem][coal_stall] = 0
gpgpu_stall_shd_mem[gl_mem][data_port_stall] = 0
gpgpu_stall_shd_mem[g_mem_ld][mshr_rc] = 0
gpgpu_stall_shd_mem[g_mem_ld][icnt_rc] = 311
gpgpu_stall_shd_mem[g_mem_ld][wb_icnt_rc] = 0
gpgpu_stall_shd_mem[g_mem_ld][wb_rsrv_fail] = 0
gpgpu_stall_shd_mem[g_mem_st][mshr_rc] = 0
gpgpu_stall_shd_mem[g_mem_st][icnt_rc] = 0
gpgpu_stall_shd_mem[g_mem_st][wb_icnt_rc] = 0
gpgpu_stall_shd_mem[g_mem_st][wb_rsrv_fail] = 0
gpgpu_stall_shd_mem[l_mem_ld][mshr_rc] = 0
gpgpu_stall_shd_mem[l_mem_ld][icnt_rc] = 0
gpgpu_stall_shd_mem[l_mem_ld][wb_icnt_rc] = 0
gpgpu_stall_shd_mem[l_mem_ld][wb_rsrv_fail] = 0
gpgpu_stall_shd_mem[l_mem_st][mshr_rc] = 0
gpgpu_stall_shd_mem[l_mem_st][icnt_rc] = 0
gpgpu_stall_shd_mem[l_mem_ld][wb_icnt_rc] = 0
gpgpu_stall_shd_mem[l_mem_ld][wb_rsrv_fail] = 0
gpu_reg_bank_conflict_stalls = 0
Warp Occupancy Distribution:
Stall:16015	W0_Idle:4511914	W0_Scoreboard:637826	W1:203	W2:0	W3:0	W4:0	W5:0	W6:0	W7:0	W8:0	W9:0	W10:0	W11:0	W12:0	W13:0	W14:0	W15:0	W16:0	W17:0	W18:0	W19:0	W20:0	W21:0	W22:0	W23:0	W24:0	W25:0	W26:0	W27:0	W28:0	W29:0	W30:0	W31:0	W32:40960
traffic_breakdown_coretomem[CONST_ACC_R] = 224 {8:28,}
traffic_breakdown_coretomem[GLOBAL_ACC_R] = 16720 {8:2090,}
traffic_breakdown_coretomem[GLOBAL_ACC_W] = 680 {40:17,}
traffic_breakdown_coretomem[INST_ACC_R] = 680 {8:85,}
traffic_breakdown_memtocore[CONST_ACC_R] = 2016 {72:28,}
traffic_breakdown_memtocore[GLOBAL_ACC_R] = 83600 {40:2090,}
traffic_breakdown_memtocore[GLOBAL_ACC_W] = 136 {8:17,}
traffic_breakdown_memtocore[INST_ACC_R] = 11560 {136:85,}
maxmrqlatency = 58 
maxdqlatency = 0 
maxmflatency = 41720 
averagemflatency = 8426 
max_icnt2mem_latency = 41485 
max_icnt2sh_latency = 317517 
mrq_lat_table:171 	49 	48 	63 	71 	158 	0 	0 	0 	0 	0 	0 	0 	0 	0 	0 	0 	0 	0 	0 	0 	0 	0 	0 	0 	0 	0 	0 	0 	0 	0 	0 	
dq_lat_table:0 	0 	0 	0 	0 	0 	0 	0 	0 	0 	0 	0 	0 	0 	0 	0 	0 	0 	0 	0 	0 	0 	0 	0 	0 	0 	0 	0 	0 	0 	0 	0 	
mf_lat_table:0 	0 	0 	0 	0 	0 	0 	93 	230 	0 	0 	512 	1 	1292 	4 	3 	0 	0 	0 	0 	0 	0 	0 	0 	0 	0 	0 	0 	0 	0 	0 	0 	
icnt2mem_lat_table:0 	0 	133 	23 	22 	0 	230 	0 	0 	0 	0 	512 	2 	1291 	4 	3 	0 	0 	0 	0 	0 	0 	0 	0 	
icnt2sh_lat_table:0 	0 	655 	956 	503 	4 	0 	0 	0 	0 	0 	0 	0 	0 	0 	0 	0 	1 	16 	0 	0 	0 	0 	0 	
mf_lat_pw_table:0 	0 	0 	0 	0 	0 	0 	13 	0 	0 	0 	2 	2 	6 	1 	2 	0 	0 	0 	0 	0 	0 	0 	0 	0 	0 	0 	0 	0 	0 	0 	0 	
maximum concurrent accesses to same row:
dram[0]:         1         0         0         0         0         0         0         0         0         0         0         0         0         0         0         0 
dram[1]:         0         0         0         0         0         0         0         0         0         0         0         0         0         0         0         0 
dram[2]:         0         0         0         0         0         0         0         0         0         0         0         0         0         0         0         0 
dram[3]:         0         0         0         0         0         0         0         0         0         0         0         0         0         0         0         0 
dram[4]:         0         0         0         0         0         0         0         0         0         0         0         0         0         0         1         1 
dram[5]:         0         0         0         0         0         0         0         0         0         0         0         0         0         0        16         6 
dram[6]:         0         0         0         0         0         0         0         0         0         0         0         0         0         0         0         0 
dram[7]:         0         0         0         0         0         0         0         0         0         0         0         0         0         0         0         0 
dram[8]:         0         0         0         0         0         0         0         0         0         0         0         0         0         0         0         0 
dram[9]:         0         0         0         0         0         0         1         0         0         0         0         0         0         0         0         0 
dram[10]:         0         0         0         0         0         0         0         0         0         0         0         0         0         0         0        16 
maximum service time to same row:
dram[0]:     11515     11519     64576     64575         0         0     84579         0         0         0         0         0         0         0      4580      4584 
dram[1]:     11498     11500         0         0         0         0         0     46748         0         0         0         0         0         0      4580      4582 
dram[2]:     11493     11493     64573         0     50172         0         0         0     84581         0         0         0         0         0      4580      4581 
dram[3]:     11497     11500         0         0         0     47604     48460         0         0     84582         0         0         0         0      4580      4581 
dram[4]:     11500     11502         0         0     36565         0         0         0         0         0         0         0         0         0      4352      3792 
dram[5]:     11504     11507         0         0     49316         0         0         0         0         0         0         0         0         0     58497      6609 
dram[6]:     11507     11509     46035         0         0         0         0         0         0         0         0         0         0         0      4580      4584 
dram[7]:     11503     11507         0         0     54275         0         0         0         0         0         0     92819         0         0      4580      4584 
dram[8]:     11503     11507         0         0         0         0         0         0         0         0         0         0         0         0      4580      4584 
dram[9]:     11500     11501         0     64579         0         0     14050     54277         0         0         0         0         0         0      4580      4584 
dram[10]:     11507     11508         0         0     51674         0         0         0         0         0         0         0         0         0      4580     68228 
average row accesses per activate:
dram[0]:  9.000000 10.000000  2.000000  2.000000      -nan      -nan  2.000000      -nan      -nan      -nan      -nan      -nan      -nan      -nan 16.000000 16.000000 
dram[1]: 10.000000  8.000000      -nan      -nan      -nan      -nan      -nan  1.000000      -nan      -nan      -nan      -nan      -nan      -nan 16.000000 16.000000 
dram[2]:  8.000000  8.000000  2.000000      -nan  1.000000      -nan      -nan      -nan  2.000000      -nan      -nan      -nan      -nan      -nan 16.000000 16.000000 
dram[3]:  7.000000  7.000000      -nan      -nan      -nan  2.000000  1.000000      -nan      -nan  2.000000      -nan      -nan      -nan      -nan 16.000000 16.000000 
dram[4]:  7.000000  7.000000      -nan      -nan  1.000000      -nan      -nan      -nan      -nan      -nan      -nan      -nan      -nan      -nan  8.500000  8.500000 
dram[5]:  7.000000  7.000000      -nan      -nan  1.000000      -nan      -nan      -nan      -nan      -nan      -nan      -nan      -nan      -nan  6.333333  5.666667 
dram[6]:  7.000000  7.000000  1.000000      -nan      -nan      -nan      -nan      -nan      -nan      -nan      -nan      -nan      -nan      -nan 16.000000 16.000000 
dram[7]:  9.000000  7.000000      -nan      -nan  2.000000      -nan      -nan      -nan      -nan      -nan      -nan  2.000000      -nan      -nan 16.000000 16.000000 
dram[8]:  7.000000  7.000000      -nan      -nan      -nan      -nan      -nan      -nan      -nan      -nan      -nan      -nan      -nan      -nan 16.000000 16.000000 
dram[9]:  7.000000  7.000000      -nan  2.000000      -nan      -nan  1.000000  2.000000      -nan      -nan      -nan      -nan      -nan      -nan 16.000000 16.000000 
dram[10]:  9.000000  7.000000      -nan      -nan  1.000000      -nan      -nan      -nan      -nan      -nan      -nan      -nan      -nan      -nan 16.000000  9.000000 
average row locality = 560/71 = 7.887324
number of total memory accesses made:
dram[0]:         0         0         0         0         0         0         0         0         0         0         0         0         0         0         0         0 
dram[1]:         0         0         0         0         0         0         0         0         0         0         0         0         0         0         0         0 
dram[2]:         0         0         0         0         0         0         0         0         0         0         0         0         0         0         0         0 
dram[3]:         0         0         0         0         0         0         0         0         0         0         0         0         0         0         0         0 
dram[4]:         0         0         0         0         0         0         0         0         0         0         0         0         0         0         0         0 
dram[5]:         0         0         0         0         0         0         0         0         0         0         0         0         0         0         0         0 
dram[6]:         0         0         0         0         0         0         0         0         0         0         0         0         0         0         0         0 
dram[7]:         0         0         0         0         0         0         0         0         0         0         0         0         0         0         0         0 
dram[8]:         0         0         0         0         0         0         0         0         0         0         0         0         0         0         0         0 
dram[9]:         0         0         0         0         0         0         0         0         0         0         0         0         0         0         0         0 
dram[10]:         0         0         0         0         0         0         0         0         0         0         0         0         0         0         0         0 
total accesses: 0
min_bank_accesses = 0!
min_chip_accesses = 0!
number of total read accesses:
dram[0]:         9         9         1         1         0         0         1         0         0         0         0         0         0         0        16        16 
dram[1]:         9         8         0         0         0         0         0         1         0         0         0         0         0         0        16        16 
dram[2]:         8         8         1         0         1         0         0         0         1         0         0         0         0         0        16        16 
dram[3]:         7         7         0         0         0         2         1         0         0         1         0         0         0         0        16        16 
dram[4]:         7         7         0         0         1         0         0         0         0         0         0         0         0         0        17        17 
dram[5]:         7         7         0         0         1         0         0         0         0         0         0         0         0         0        18        17 
dram[6]:         7         7         1         0         0         0         0         0         0         0         0         0         0         0        16        16 
dram[7]:         8         7         0         0         1         0         0         0         0         0         0         1         0         0        16        16 
dram[8]:         7         7         0         0         0         0         0         0         0         0         0         0         0         0        16        16 
dram[9]:         7         7         0         1         0         0         2         1         0         0         0         0         0         0        16        16 
dram[10]:         8         7         0         0         1         0         0         0         0         0         0         0         0         0        16        17 
total reads: 544
min_bank_accesses = 0!
chip skew: 53/46 = 1.15
number of total write accesses:
dram[0]:         0         1         1         1         0         0         1         0         0         0         0         0         0         0         0         0 
dram[1]:         1         0         0         0         0         0         0         0         0         0         0         0         0         0         0         0 
dram[2]:         0         0         1         0         0         0         0         0         1         0         0         0         0         0         0         0 
dram[3]:         0         0         0         0         0         0         0         0         0         1         0         0         0         0         0         0 
dram[4]:         0         0         0         0         0         0         0         0         0         0         0         0         0         0         0         0 
dram[5]:         0         0         0         0         0         0         0         0         0         0         0         0         0         0         1         0 
dram[6]:         0         0         0         0         0         0         0         0         0         0         0         0         0         0         0         0 
dram[7]:         1         0         0         0         1         0         0         0         0         0         0         1         0         0         0         0 
dram[8]:         0         0         0         0         0         0         0         0         0         0         0         0         0         0         0         0 
dram[9]:         0         0         0         1         0         0         0         1         0         0         0         0         0         0         0         0 
dram[10]:         1         0         0         0         0         0         0         0         0         0         0         0         0         0         0         1 
total reads: 16
min_bank_accesses = 0!
min_chip_accesses = 0!
average mf latency per bank:
dram[0]:      24633     22463      7963      6731    none      none       16363    none      none      none      none      none      none      none       32113     32199
dram[1]:      22623     26849    none      none      none      none      none         352    none      none      none      none      none      none       32086     32219
dram[2]:      26896     26873      7532    none         352    none      none      none       17115    none      none      none      none      none       32069     32190
dram[3]:      30533     30459    none      none      none         298       352    none      none       17543    none      none      none      none       32047     32151
dram[4]:      24656     24633    none      none       11647    none      none      none      none      none      none      none      none      none       30154     30275
dram[5]:      24644     24590    none      none         352    none      none      none      none      none      none      none      none      none       28260     30247
dram[6]:      24653     24595     10367    none      none      none      none      none      none      none      none      none      none      none       32032     32105
dram[7]:      20565     24561    none      none        3246    none      none      none      none      none      none       20860    none      none       32031     32116
dram[8]:      24640     24614    none      none      none      none      none      none      none      none      none      none      none      none       32014     32109
dram[9]:      24655     24590    none        8818    none      none       11481      4103    none      none      none      none      none      none       33736     33847
dram[10]:      20759     24684    none      none         250    none      none      none      none      none      none      none      none      none       33738     31566
maximum mf latency per bank:
dram[0]:      10703     10680     15926     13462         0         0     32726         0         0         0         0         0         0         0     10678     10711
dram[1]:      11618     10660         0         0         0         0         0       352         0         0         0         0         0         0     10663     10717
dram[2]:      10675     10690     15064         0       352         0         0         0     34230         0         0         0         0         0     10676     10724
dram[3]:      10659     10638         0         0         0       352       352         0         0     35087         0         0         0         0     10637     10672
dram[4]:      10636     10658         0         0     11647         0         0         0         0         0         0         0         0         0     10633     10664
dram[5]:      10633     10644         0         0       352         0         0         0         0         0         0         0         0         0     24177     10671
dram[6]:      10638     10619      9457         0         0         0         0         0         0         0         0         0         0         0     10646     10665
dram[7]:      12701     10615         0         0      6492         0         0         0         0         0         0     41720         0         0     10632     10663
dram[8]:      10632     10627         0         0         0         0         0         0         0         0         0         0         0         0     10631     10662
dram[9]:      10638     10637         0     17637         0         0     10414      8206         0         0         0         0         0         0     10631     10670
dram[10]:      14201     10678         0         0       250         0         0         0         0         0         0         0         0         0     10646     25891
Memory Partition 0: 
Cache L2_bank_000:
MSHR contents

Cache L2_bank_001:
MSHR contents

In Dram Latency Queue (total = 0): 
DRAM[0]: 16 bks, busW=4 BL=8 CL=12, tRRD=2 tCCD=6, tRCD=12 tRAS=28 tRP=12 tRC=40
n_cmd=172844 n_nop=172619 n_act=8 n_pre=1 n_req=57 n_rd=212 n_write=4 bw_util=0.002499
n_activity=601 dram_eff=0.7188
bk0: 36a 172734i bk1: 36a 172704i bk2: 4a 172813i bk3: 4a 172804i bk4: 0a 172841i bk5: 0a 172842i bk6: 4a 172818i bk7: 0a 172842i bk8: 0a 172843i bk9: 0a 172843i bk10: 0a 172843i bk11: 0a 172844i bk12: 0a 172846i bk13: 0a 172847i bk14: 64a 172700i bk15: 64a 172592i 
dram_util_bins: 0 0 0 0 0 0 0 0 0 0
dram_eff_bins: 0 0 0 0 0 0 0 0 0 0
mrqq: max=8 avg=0.00895605
Memory Partition 1: 
Cache L2_bank_002:
MSHR contents

Cache L2_bank_003:
MSHR contents

In Dram Latency Queue (total = 0): 
DRAM[1]: 16 bks, busW=4 BL=8 CL=12, tRRD=2 tCCD=6, tRCD=12 tRAS=28 tRP=12 tRC=40
n_cmd=172844 n_nop=172638 n_act=5 n_pre=0 n_req=51 n_rd=200 n_write=1 bw_util=0.002326
n_activity=506 dram_eff=0.7945
bk0: 36a 172704i bk1: 32a 172676i bk2: 0a 172843i bk3: 0a 172844i bk4: 0a 172844i bk5: 0a 172844i bk6: 0a 172844i bk7: 4a 172824i bk8: 0a 172843i bk9: 0a 172843i bk10: 0a 172844i bk11: 0a 172844i bk12: 0a 172844i bk13: 0a 172845i bk14: 64a 172699i bk15: 64a 172587i 
dram_util_bins: 0 0 0 0 0 0 0 0 0 0
dram_eff_bins: 0 0 0 0 0 0 0 0 0 0
mrqq: max=10 avg=0.00892134
Memory Partition 2: 
Cache L2_bank_004:
MSHR contents

Cache L2_bank_005:
MSHR contents

In Dram Latency Queue (total = 0): 
DRAM[2]: 16 bks, busW=4 BL=8 CL=12, tRRD=2 tCCD=6, tRCD=12 tRAS=28 tRP=12 tRC=40
n_cmd=172844 n_nop=172631 n_act=7 n_pre=0 n_req=53 n_rd=204 n_write=2 bw_util=0.002384
n_activity=562 dram_eff=0.7331
bk0: 32a 172711i bk1: 32a 172673i bk2: 4a 172819i bk3: 0a 172843i bk4: 4a 172823i bk5: 0a 172842i bk6: 0a 172843i bk7: 0a 172843i bk8: 4a 172819i bk9: 0a 172843i bk10: 0a 172844i bk11: 0a 172844i bk12: 0a 172844i bk13: 0a 172846i bk14: 64a 172699i bk15: 64a 172587i 
dram_util_bins: 0 0 0 0 0 0 0 0 0 0
dram_eff_bins: 0 0 0 0 0 0 0 0 0 0
mrqq: max=12 avg=0.0102809
Memory Partition 3: 
Cache L2_bank_006:
MSHR contents

Cache L2_bank_007:
MSHR contents

In Dram Latency Queue (total = 0): 
DRAM[3]: 16 bks, busW=4 BL=8 CL=12, tRRD=2 tCCD=6, tRCD=12 tRAS=28 tRP=12 tRC=40
n_cmd=172844 n_nop=172636 n_act=7 n_pre=0 n_req=51 n_rd=200 n_write=1 bw_util=0.002326
n_activity=568 dram_eff=0.7077
bk0: 28a 172726i bk1: 28a 172692i bk2: 0a 172843i bk3: 0a 172844i bk4: 0a 172844i bk5: 8a 172817i bk6: 4a 172823i bk7: 0a 172842i bk8: 0a 172843i bk9: 4a 172818i bk10: 0a 172843i bk11: 0a 172845i bk12: 0a 172845i bk13: 0a 172846i bk14: 64a 172699i bk15: 64a 172585i 
dram_util_bins: 0 0 0 0 0 0 0 0 0 0
dram_eff_bins: 0 0 0 0 0 0 0 0 0 0
mrqq: max=10 avg=0.00952304
Memory Partition 4: 
Cache L2_bank_008:
MSHR contents

Cache L2_bank_009:
MSHR contents

In Dram Latency Queue (total = 0): 
DRAM[4]: 16 bks, busW=4 BL=8 CL=12, tRRD=2 tCCD=6, tRCD=12 tRAS=28 tRP=12 tRC=40
n_cmd=172844 n_nop=172639 n_act=7 n_pre=2 n_req=49 n_rd=196 n_write=0 bw_util=0.002268
n_activity=552 dram_eff=0.7101
bk0: 28a 172731i bk1: 28a 172698i bk2: 0a 172844i bk3: 0a 172844i bk4: 4a 172824i bk5: 0a 172842i bk6: 0a 172842i bk7: 0a 172842i bk8: 0a 172842i bk9: 0a 172844i bk10: 0a 172844i bk11: 0a 172845i bk12: 0a 172845i bk13: 0a 172847i bk14: 68a 172669i bk15: 68a 172555i 
dram_util_bins: 0 0 0 0 0 0 0 0 0 0
dram_eff_bins: 0 0 0 0 0 0 0 0 0 0
mrqq: max=10 avg=0.00948832
Memory Partition 5: 
Cache L2_bank_010:
MSHR contents

Cache L2_bank_011:
MSHR contents

In Dram Latency Queue (total = 0): 
DRAM[5]: 16 bks, busW=4 BL=8 CL=12, tRRD=2 tCCD=6, tRCD=12 tRAS=28 tRP=12 tRC=40
n_cmd=172844 n_nop=172630 n_act=9 n_pre=4 n_req=51 n_rd=200 n_write=1 bw_util=0.002326
n_activity=619 dram_eff=0.6494
bk0: 28a 172737i bk1: 28a 172710i bk2: 0a 172841i bk3: 0a 172842i bk4: 4a 172822i bk5: 0a 172841i bk6: 0a 172843i bk7: 0a 172843i bk8: 0a 172844i bk9: 0a 172844i bk10: 0a 172845i bk11: 0a 172846i bk12: 0a 172847i bk13: 0a 172849i bk14: 72a 172641i bk15: 68a 172556i 
dram_util_bins: 0 0 0 0 0 0 0 0 0 0
dram_eff_bins: 0 0 0 0 0 0 0 0 0 0
mrqq: max=9 avg=0.00823286
Memory Partition 6: 
Cache L2_bank_012:
MSHR contents

Cache L2_bank_013:
MSHR contents

In Dram Latency Queue (total = 0): 
DRAM[6]: 16 bks, busW=4 BL=8 CL=12, tRRD=2 tCCD=6, tRCD=12 tRAS=28 tRP=12 tRC=40
n_cmd=172844 n_nop=172651 n_act=5 n_pre=0 n_req=47 n_rd=188 n_write=0 bw_util=0.002175
n_activity=461 dram_eff=0.8156
bk0: 28a 172745i bk1: 28a 172710i bk2: 4a 172823i bk3: 0a 172842i bk4: 0a 172842i bk5: 0a 172842i bk6: 0a 172842i bk7: 0a 172842i bk8: 0a 172843i bk9: 0a 172844i bk10: 0a 172845i bk11: 0a 172845i bk12: 0a 172845i bk13: 0a 172847i bk14: 64a 172702i bk15: 64a 172594i 
dram_util_bins: 0 0 0 0 0 0 0 0 0 0
dram_eff_bins: 0 0 0 0 0 0 0 0 0 0
mrqq: max=8 avg=0.00807086
Memory Partition 7: 
Cache L2_bank_014:
MSHR contents

Cache L2_bank_015:
MSHR contents

In Dram Latency Queue (total = 0): 
DRAM[7]: 16 bks, busW=4 BL=8 CL=12, tRRD=2 tCCD=6, tRCD=12 tRAS=28 tRP=12 tRC=40
n_cmd=172844 n_nop=172639 n_act=6 n_pre=0 n_req=52 n_rd=196 n_write=3 bw_util=0.002303
n_activity=535 dram_eff=0.7439
bk0: 32a 172722i bk1: 28a 172714i bk2: 0a 172843i bk3: 0a 172844i bk4: 4a 172818i bk5: 0a 172842i bk6: 0a 172842i bk7: 0a 172842i bk8: 0a 172842i bk9: 0a 172845i bk10: 0a 172845i bk11: 4a 172819i bk12: 0a 172844i bk13: 0a 172845i bk14: 64a 172700i bk15: 64a 172590i 
dram_util_bins: 0 0 0 0 0 0 0 0 0 0
dram_eff_bins: 0 0 0 0 0 0 0 0 0 0
mrqq: max=9 avg=0.00772373
Memory Partition 8: 
Cache L2_bank_016:
MSHR contents

Cache L2_bank_017:
MSHR contents

In Dram Latency Queue (total = 0): 
DRAM[8]: 16 bks, busW=4 BL=8 CL=12, tRRD=2 tCCD=6, tRCD=12 tRAS=28 tRP=12 tRC=40
n_cmd=172844 n_nop=172656 n_act=4 n_pre=0 n_req=46 n_rd=184 n_write=0 bw_util=0.002129
n_activity=421 dram_eff=0.8741
bk0: 28a 172738i bk1: 28a 172705i bk2: 0a 172842i bk3: 0a 172843i bk4: 0a 172843i bk5: 0a 172843i bk6: 0a 172843i bk7: 0a 172843i bk8: 0a 172843i bk9: 0a 172845i bk10: 0a 172845i bk11: 0a 172845i bk12: 0a 172845i bk13: 0a 172846i bk14: 64a 172701i bk15: 64a 172593i 
dram_util_bins: 0 0 0 0 0 0 0 0 0 0
dram_eff_bins: 0 0 0 0 0 0 0 0 0 0
mrqq: max=10 avg=0.00840642
Memory Partition 9: 
Cache L2_bank_018:
MSHR contents

Cache L2_bank_019:
MSHR contents

In Dram Latency Queue (total = 0): 
DRAM[9]: 16 bks, busW=4 BL=8 CL=12, tRRD=2 tCCD=6, tRCD=12 tRAS=28 tRP=12 tRC=40
n_cmd=172844 n_nop=172633 n_act=8 n_pre=1 n_req=52 n_rd=200 n_write=2 bw_util=0.002337
n_activity=598 dram_eff=0.6756
bk0: 28a 172717i bk1: 28a 172688i bk2: 0a 172845i bk3: 4a 172819i bk4: 0a 172843i bk5: 0a 172843i bk6: 8a 172792i bk7: 4a 172816i bk8: 0a 172842i bk9: 0a 172842i bk10: 0a 172843i bk11: 0a 172844i bk12: 0a 172844i bk13: 0a 172846i bk14: 64a 172701i bk15: 64a 172588i 
dram_util_bins: 0 0 0 0 0 0 0 0 0 0
dram_eff_bins: 0 0 0 0 0 0 0 0 0 0
mrqq: max=11 avg=0.00982389
Memory Partition 10: 
Cache L2_bank_020:
MSHR contents

Cache L2_bank_021:
MSHR contents

In Dram Latency Queue (total = 0): 
DRAM[10]: 16 bks, busW=4 BL=8 CL=12, tRRD=2 tCCD=6, tRCD=12 tRAS=28 tRP=12 tRC=40
n_cmd=172844 n_nop=172639 n_act=6 n_pre=1 n_req=51 n_rd=196 n_write=2 bw_util=0.002291
n_activity=542 dram_eff=0.7306
bk0: 32a 172711i bk1: 28a 172691i bk2: 0a 172842i bk3: 0a 172843i bk4: 4a 172823i bk5: 0a 172841i bk6: 0a 172841i bk7: 0a 172841i bk8: 0a 172844i bk9: 0a 172844i bk10: 0a 172845i bk11: 0a 172846i bk12: 0a 172846i bk13: 0a 172847i bk14: 64a 172709i bk15: 68a 172550i 
dram_util_bins: 0 0 0 0 0 0 0 0 0 0
dram_eff_bins: 0 0 0 0 0 0 0 0 0 0
mrqq: max=11 avg=0.0092569

========= L2 cache stats =========
L2_cache_bank[0]: Access = 127, Miss = 27, Miss_rate = 0.213, Pending_hits = 99, Reservation_fails = 0
L2_cache_bank[1]: Access = 98, Miss = 26, Miss_rate = 0.265, Pending_hits = 72, Reservation_fails = 0
L2_cache_bank[2]: Access = 97, Miss = 25, Miss_rate = 0.258, Pending_hits = 72, Reservation_fails = 0
L2_cache_bank[3]: Access = 97, Miss = 25, Miss_rate = 0.258, Pending_hits = 72, Reservation_fails = 0
L2_cache_bank[4]: Access = 99, Miss = 27, Miss_rate = 0.273, Pending_hits = 72, Reservation_fails = 0
L2_cache_bank[5]: Access = 96, Miss = 24, Miss_rate = 0.250, Pending_hits = 72, Reservation_fails = 0
L2_cache_bank[6]: Access = 93, Miss = 24, Miss_rate = 0.258, Pending_hits = 69, Reservation_fails = 0
L2_cache_bank[7]: Access = 95, Miss = 26, Miss_rate = 0.274, Pending_hits = 69, Reservation_fails = 0
L2_cache_bank[8]: Access = 121, Miss = 25, Miss_rate = 0.207, Pending_hits = 96, Reservation_fails = 0
L2_cache_bank[9]: Access = 120, Miss = 24, Miss_rate = 0.200, Pending_hits = 96, Reservation_fails = 0
L2_cache_bank[10]: Access = 95, Miss = 26, Miss_rate = 0.274, Pending_hits = 69, Reservation_fails = 0
L2_cache_bank[11]: Access = 120, Miss = 24, Miss_rate = 0.200, Pending_hits = 96, Reservation_fails = 0
L2_cache_bank[12]: Access = 100, Miss = 24, Miss_rate = 0.240, Pending_hits = 69, Reservation_fails = 0
L2_cache_bank[13]: Access = 92, Miss = 23, Miss_rate = 0.250, Pending_hits = 69, Reservation_fails = 0
L2_cache_bank[14]: Access = 94, Miss = 25, Miss_rate = 0.266, Pending_hits = 69, Reservation_fails = 0
L2_cache_bank[15]: Access = 93, Miss = 24, Miss_rate = 0.258, Pending_hits = 69, Reservation_fails = 0
L2_cache_bank[16]: Access = 92, Miss = 23, Miss_rate = 0.250, Pending_hits = 69, Reservation_fails = 0
L2_cache_bank[17]: Access = 92, Miss = 23, Miss_rate = 0.250, Pending_hits = 69, Reservation_fails = 0
L2_cache_bank[18]: Access = 118, Miss = 25, Miss_rate = 0.212, Pending_hits = 69, Reservation_fails = 0
L2_cache_bank[19]: Access = 94, Miss = 25, Miss_rate = 0.266, Pending_hits = 69, Reservation_fails = 0
L2_cache_bank[20]: Access = 94, Miss = 25, Miss_rate = 0.266, Pending_hits = 69, Reservation_fails = 0
L2_cache_bank[21]: Access = 93, Miss = 24, Miss_rate = 0.258, Pending_hits = 69, Reservation_fails = 0
L2_total_cache_accesses = 2220
L2_total_cache_misses = 544
L2_total_cache_miss_rate = 0.2450
L2_total_cache_pending_hits = 1644
L2_total_cache_reservation_fails = 0
L2_total_cache_breakdown:
	L2_cache_stats_breakdown[GLOBAL_ACC_R][HIT] = 31
	L2_cache_stats_breakdown[GLOBAL_ACC_R][HIT_RESERVED] = 1536
	L2_cache_stats_breakdown[GLOBAL_ACC_R][MISS] = 523
	L2_cache_stats_breakdown[GLOBAL_ACC_R][RESERVATION_FAIL] = 0
	L2_cache_stats_breakdown[LOCAL_ACC_R][HIT] = 0
	L2_cache_stats_breakdown[LOCAL_ACC_R][HIT_RESERVED] = 0
	L2_cache_stats_breakdown[LOCAL_ACC_R][MISS] = 0
	L2_cache_stats_breakdown[LOCAL_ACC_R][RESERVATION_FAIL] = 0
	L2_cache_stats_breakdown[CONST_ACC_R][HIT] = 0
	L2_cache_stats_breakdown[CONST_ACC_R][HIT_RESERVED] = 27
	L2_cache_stats_breakdown[CONST_ACC_R][MISS] = 1
	L2_cache_stats_breakdown[CONST_ACC_R][RESERVATION_FAIL] = 0
	L2_cache_stats_breakdown[TEXTURE_ACC_R][HIT] = 0
	L2_cache_stats_breakdown[TEXTURE_ACC_R][HIT_RESERVED] = 0
	L2_cache_stats_breakdown[TEXTURE_ACC_R][MISS] = 0
	L2_cache_stats_breakdown[TEXTURE_ACC_R][RESERVATION_FAIL] = 0
	L2_cache_stats_breakdown[GLOBAL_ACC_W][HIT] = 1
	L2_cache_stats_breakdown[GLOBAL_ACC_W][HIT_RESERVED] = 0
	L2_cache_stats_breakdown[GLOBAL_ACC_W][MISS] = 16
	L2_cache_stats_breakdown[GLOBAL_ACC_W][RESERVATION_FAIL] = 0
	L2_cache_stats_breakdown[LOCAL_ACC_W][HIT] = 0
	L2_cache_stats_breakdown[LOCAL_ACC_W][HIT_RESERVED] = 0
	L2_cache_stats_breakdown[LOCAL_ACC_W][MISS] = 0
	L2_cache_stats_breakdown[LOCAL_ACC_W][RESERVATION_FAIL] = 0
	L2_cache_stats_breakdown[L1_WRBK_ACC][HIT] = 0
	L2_cache_stats_breakdown[L1_WRBK_ACC][HIT_RESERVED] = 0
	L2_cache_stats_breakdown[L1_WRBK_ACC][MISS] = 0
	L2_cache_stats_breakdown[L1_WRBK_ACC][RESERVATION_FAIL] = 0
	L2_cache_stats_breakdown[L2_WRBK_ACC][HIT] = 0
	L2_cache_stats_breakdown[L2_WRBK_ACC][HIT_RESERVED] = 0
	L2_cache_stats_breakdown[L2_WRBK_ACC][MISS] = 0
	L2_cache_stats_breakdown[L2_WRBK_ACC][RESERVATION_FAIL] = 0
	L2_cache_stats_breakdown[INST_ACC_R][HIT] = 0
	L2_cache_stats_breakdown[INST_ACC_R][HIT_RESERVED] = 81
	L2_cache_stats_breakdown[INST_ACC_R][MISS] = 4
	L2_cache_stats_breakdown[INST_ACC_R][RESERVATION_FAIL] = 0
	L2_cache_stats_breakdown[L1_WR_ALLOC_R][HIT] = 0
	L2_cache_stats_breakdown[L1_WR_ALLOC_R][HIT_RESERVED] = 0
	L2_cache_stats_breakdown[L1_WR_ALLOC_R][MISS] = 0
	L2_cache_stats_breakdown[L1_WR_ALLOC_R][RESERVATION_FAIL] = 0
	L2_cache_stats_breakdown[L2_WR_ALLOC_R][HIT] = 0
	L2_cache_stats_breakdown[L2_WR_ALLOC_R][HIT_RESERVED] = 0
	L2_cache_stats_breakdown[L2_WR_ALLOC_R][MISS] = 0
	L2_cache_stats_breakdown[L2_WR_ALLOC_R][RESERVATION_FAIL] = 0
	L2_cache_stats_breakdown[GLOBAL_ACC_R][TOTAL_ACCESS] = 2090
	L2_cache_stats_breakdown[CONST_ACC_R][TOTAL_ACCESS] = 28
	L2_cache_stats_breakdown[GLOBAL_ACC_W][TOTAL_ACCESS] = 17
	L2_cache_stats_breakdown[INST_ACC_R][TOTAL_ACCESS] = 85
L2_cache_data_port_util = 0.000
L2_cache_fill_port_util = 0.001

icnt_total_pkts_mem_to_simt=4706
icnt_total_pkts_simt_to_mem=2237
LD_mem_lat_dist  0 0 0 0 0 0 0 0 0 0 0 0 0 0 0 0 0 0 0 0 0 0 0 0 0 0 0
ST_mem_lat_dist  0 0 0 0 0 0 0 0 0 0 0 0 0 0 0 0 0 0 0 0 0 0 0 0 0 0 0
----------------------------Interconnect-DETAILS--------------------------------
Class 0:
Packet latency average = 26.4471
	minimum = 6
	maximum = 96
Network latency average = 18.4167
	minimum = 6
	maximum = 60
Slowest packet = 27
Flit latency average = 16.2639
	minimum = 6
	maximum = 60
Slowest flit = 27
Fragmentation average = 0
	minimum = 0
	maximum = 0
Injected packet rate average = 0.000476986
	minimum = 0.00036526 (at node 0)
	maximum = 0.000773491 (at node 1)
Accepted packet rate average = 0.000476986
	minimum = 0.00036526 (at node 0)
	maximum = 0.000773491 (at node 1)
Injected flit rate average = 0.000745881
	minimum = 0.00036526 (at node 0)
	maximum = 0.0017511 (at node 36)
Accepted flit rate average= 0.000745881
	minimum = 0.000494175 (at node 41)
	maximum = 0.0015255 (at node 1)
Injected packet length average = 1.56374
Accepted packet length average = 1.56374
Total in-flight flits = 0 (0 measured)
====== Overall Traffic Statistics ======
====== Traffic class 0 ======
Packet latency average = 26.4471 (1 samples)
	minimum = 6 (1 samples)
	maximum = 96 (1 samples)
Network latency average = 18.4167 (1 samples)
	minimum = 6 (1 samples)
	maximum = 60 (1 samples)
Flit latency average = 16.2639 (1 samples)
	minimum = 6 (1 samples)
	maximum = 60 (1 samples)
Fragmentation average = 0 (1 samples)
	minimum = 0 (1 samples)
	maximum = 0 (1 samples)
Injected packet rate average = 0.000476986 (1 samples)
	minimum = 0.00036526 (1 samples)
	maximum = 0.000773491 (1 samples)
Accepted packet rate average = 0.000476986 (1 samples)
	minimum = 0.00036526 (1 samples)
	maximum = 0.000773491 (1 samples)
Injected flit rate average = 0.000745881 (1 samples)
	minimum = 0.00036526 (1 samples)
	maximum = 0.0017511 (1 samples)
Accepted flit rate average = 0.000745881 (1 samples)
	minimum = 0.000494175 (1 samples)
	maximum = 0.0015255 (1 samples)
Injected packet size average = 1.56374 (1 samples)
Accepted packet size average = 1.56374 (1 samples)
Hops average = 1 (1 samples)
----------------------------END-of-Interconnect-DETAILS-------------------------


gpgpu_simulation_time = 0 days, 0 hrs, 2 min, 32 sec (152 sec)
gpgpu_simulation_rate = 8193 (inst/sec)
gpgpu_simulation_rate = 2090 (cycle/sec)

GPGPU-Sim PTX: cudaLaunch for 0x0x401649 (mode=performance simulation) on stream 0
GPGPU-Sim PTX: pushing kernel '_Z7Kernel2PbS_S_S_i' to stream 0, gridDim= (128,1,1) blockDim = (512,1,1) 
GPGPU-Sim uArch: Shader 17 bind to kernel 2 '_Z7Kernel2PbS_S_S_i'
GPGPU-Sim uArch: CTA/core = 4, limited by: threads
GPGPU-Sim uArch: Shader 18 bind to kernel 2 '_Z7Kernel2PbS_S_S_i'
GPGPU-Sim uArch: Shader 19 bind to kernel 2 '_Z7Kernel2PbS_S_S_i'
GPGPU-Sim uArch: Shader 20 bind to kernel 2 '_Z7Kernel2PbS_S_S_i'
GPGPU-Sim uArch: Shader 21 bind to kernel 2 '_Z7Kernel2PbS_S_S_i'
GPGPU-Sim uArch: Shader 22 bind to kernel 2 '_Z7Kernel2PbS_S_S_i'
GPGPU-Sim uArch: Shader 23 bind to kernel 2 '_Z7Kernel2PbS_S_S_i'
GPGPU-Sim uArch: Shader 24 bind to kernel 2 '_Z7Kernel2PbS_S_S_i'
GPGPU-Sim uArch: Shader 25 bind to kernel 2 '_Z7Kernel2PbS_S_S_i'
GPGPU-Sim uArch: Shader 26 bind to kernel 2 '_Z7Kernel2PbS_S_S_i'
GPGPU-Sim uArch: Shader 27 bind to kernel 2 '_Z7Kernel2PbS_S_S_i'
GPGPU-Sim uArch: Shader 0 bind to kernel 2 '_Z7Kernel2PbS_S_S_i'
GPGPU-Sim uArch: Shader 1 bind to kernel 2 '_Z7Kernel2PbS_S_S_i'
GPGPU-Sim uArch: Shader 2 bind to kernel 2 '_Z7Kernel2PbS_S_S_i'
GPGPU-Sim uArch: Shader 3 bind to kernel 2 '_Z7Kernel2PbS_S_S_i'
GPGPU-Sim uArch: Shader 4 bind to kernel 2 '_Z7Kernel2PbS_S_S_i'
GPGPU-Sim uArch: Shader 5 bind to kernel 2 '_Z7Kernel2PbS_S_S_i'
GPGPU-Sim uArch: Shader 6 bind to kernel 2 '_Z7Kernel2PbS_S_S_i'
GPGPU-Sim uArch: Shader 7 bind to kernel 2 '_Z7Kernel2PbS_S_S_i'
GPGPU-Sim uArch: Shader 8 bind to kernel 2 '_Z7Kernel2PbS_S_S_i'
GPGPU-Sim uArch: Shader 9 bind to kernel 2 '_Z7Kernel2PbS_S_S_i'
GPGPU-Sim uArch: Shader 10 bind to kernel 2 '_Z7Kernel2PbS_S_S_i'
GPGPU-Sim uArch: Shader 11 bind to kernel 2 '_Z7Kernel2PbS_S_S_i'
GPGPU-Sim uArch: Shader 12 bind to kernel 2 '_Z7Kernel2PbS_S_S_i'
GPGPU-Sim uArch: Shader 13 bind to kernel 2 '_Z7Kernel2PbS_S_S_i'
GPGPU-Sim uArch: Shader 14 bind to kernel 2 '_Z7Kernel2PbS_S_S_i'
GPGPU-Sim uArch: Shader 15 bind to kernel 2 '_Z7Kernel2PbS_S_S_i'
GPGPU-Sim uArch: Shader 16 bind to kernel 2 '_Z7Kernel2PbS_S_S_i'
Destroy streams for kernel 2: size 0
kernel_name = _Z7Kernel2PbS_S_S_i 
kernel_launch_uid = 2 
gpu_sim_cycle = 1928
gpu_sim_insn = 1114192
gpu_ipc =     577.9004
gpu_tot_sim_cycle = 541849
gpu_tot_sim_insn = 2359568
gpu_tot_ipc =       4.3547
gpu_tot_issued_cta = 256
max_total_param_size = 0
gpu_stall_dramfull = 156
gpu_stall_icnt2sh    = 7150
partiton_reqs_in_parallel = 42260
partiton_reqs_in_parallel_total    = 2047870
partiton_level_parallism =      21.9191
partiton_level_parallism_total  =       3.8574
partiton_reqs_in_parallel_util = 42260
partiton_reqs_in_parallel_util_total    = 2047870
gpu_sim_cycle_parition_util = 1928
gpu_tot_sim_cycle_parition_util    = 93085
partiton_level_parallism_util =      21.9191
partiton_level_parallism_util_total  =      21.9984
partiton_replys_in_parallel = 2136
partiton_replys_in_parallel_total    = 2220
L2_BW  =     105.0097 GB/Sec
L2_BW_total  =       0.7620 GB/Sec
gpu_total_sim_rate=14840

========= Core cache stats =========
L1I_cache:
	L1I_total_cache_accesses = 43152
	L1I_total_cache_misses = 5412
	L1I_total_cache_miss_rate = 0.1254
	L1I_total_cache_pending_hits = 0
	L1I_total_cache_reservation_fails = 15158
L1D_cache:
	L1D_cache_core[0]: Access = 0, Miss = 0, Miss_rate = -nan, Pending_hits = 0, Reservation_fails = 0
	L1D_cache_core[1]: Access = 0, Miss = 0, Miss_rate = -nan, Pending_hits = 0, Reservation_fails = 0
	L1D_cache_core[2]: Access = 0, Miss = 0, Miss_rate = -nan, Pending_hits = 0, Reservation_fails = 0
	L1D_cache_core[3]: Access = 0, Miss = 0, Miss_rate = -nan, Pending_hits = 0, Reservation_fails = 0
	L1D_cache_core[4]: Access = 0, Miss = 0, Miss_rate = -nan, Pending_hits = 0, Reservation_fails = 0
	L1D_cache_core[5]: Access = 0, Miss = 0, Miss_rate = -nan, Pending_hits = 0, Reservation_fails = 0
	L1D_cache_core[6]: Access = 0, Miss = 0, Miss_rate = -nan, Pending_hits = 0, Reservation_fails = 0
	L1D_cache_core[7]: Access = 0, Miss = 0, Miss_rate = -nan, Pending_hits = 0, Reservation_fails = 0
	L1D_cache_core[8]: Access = 0, Miss = 0, Miss_rate = -nan, Pending_hits = 0, Reservation_fails = 0
	L1D_cache_core[9]: Access = 0, Miss = 0, Miss_rate = -nan, Pending_hits = 0, Reservation_fails = 0
	L1D_cache_core[10]: Access = 0, Miss = 0, Miss_rate = -nan, Pending_hits = 0, Reservation_fails = 0
	L1D_cache_core[11]: Access = 0, Miss = 0, Miss_rate = -nan, Pending_hits = 0, Reservation_fails = 0
	L1D_cache_core[12]: Access = 0, Miss = 0, Miss_rate = -nan, Pending_hits = 0, Reservation_fails = 0
	L1D_cache_core[13]: Access = 0, Miss = 0, Miss_rate = -nan, Pending_hits = 0, Reservation_fails = 0
	L1D_cache_core[14]: Access = 0, Miss = 0, Miss_rate = -nan, Pending_hits = 0, Reservation_fails = 0
	L1D_cache_core[15]: Access = 0, Miss = 0, Miss_rate = -nan, Pending_hits = 0, Reservation_fails = 0
	L1D_cache_core[16]: Access = 0, Miss = 0, Miss_rate = -nan, Pending_hits = 0, Reservation_fails = 0
	L1D_cache_core[17]: Access = 0, Miss = 0, Miss_rate = -nan, Pending_hits = 0, Reservation_fails = 0
	L1D_cache_core[18]: Access = 0, Miss = 0, Miss_rate = -nan, Pending_hits = 0, Reservation_fails = 0
	L1D_cache_core[19]: Access = 0, Miss = 0, Miss_rate = -nan, Pending_hits = 0, Reservation_fails = 0
	L1D_cache_core[20]: Access = 0, Miss = 0, Miss_rate = -nan, Pending_hits = 0, Reservation_fails = 0
	L1D_cache_core[21]: Access = 0, Miss = 0, Miss_rate = -nan, Pending_hits = 0, Reservation_fails = 0
	L1D_cache_core[22]: Access = 0, Miss = 0, Miss_rate = -nan, Pending_hits = 0, Reservation_fails = 0
	L1D_cache_core[23]: Access = 0, Miss = 0, Miss_rate = -nan, Pending_hits = 0, Reservation_fails = 0
	L1D_cache_core[24]: Access = 0, Miss = 0, Miss_rate = -nan, Pending_hits = 0, Reservation_fails = 0
	L1D_cache_core[25]: Access = 0, Miss = 0, Miss_rate = -nan, Pending_hits = 0, Reservation_fails = 0
	L1D_cache_core[26]: Access = 0, Miss = 0, Miss_rate = -nan, Pending_hits = 0, Reservation_fails = 0
	L1D_cache_core[27]: Access = 0, Miss = 0, Miss_rate = -nan, Pending_hits = 0, Reservation_fails = 0
	L1D_total_cache_accesses = 0
	L1D_total_cache_misses = 0
	L1D_total_cache_pending_hits = 0
	L1D_total_cache_reservation_fails = 0
	L1D_cache_data_port_util = 0.000
	L1D_cache_fill_port_util = 0.000
L1C_cache:
	L1C_total_cache_accesses = 24576
	L1C_total_cache_misses = 1792
	L1C_total_cache_miss_rate = 0.0729
	L1C_total_cache_pending_hits = 0
	L1C_total_cache_reservation_fails = 4886
L1T_cache:
	L1T_total_cache_accesses = 0
	L1T_total_cache_misses = 0
	L1T_total_cache_pending_hits = 0
	L1T_total_cache_reservation_fails = 0

Total_core_cache_stats:
	Total_core_cache_stats_breakdown[GLOBAL_ACC_R][HIT] = 0
	Total_core_cache_stats_breakdown[GLOBAL_ACC_R][HIT_RESERVED] = 0
	Total_core_cache_stats_breakdown[GLOBAL_ACC_R][MISS] = 0
	Total_core_cache_stats_breakdown[GLOBAL_ACC_R][RESERVATION_FAIL] = 0
	Total_core_cache_stats_breakdown[LOCAL_ACC_R][HIT] = 0
	Total_core_cache_stats_breakdown[LOCAL_ACC_R][HIT_RESERVED] = 0
	Total_core_cache_stats_breakdown[LOCAL_ACC_R][MISS] = 0
	Total_core_cache_stats_breakdown[LOCAL_ACC_R][RESERVATION_FAIL] = 0
	Total_core_cache_stats_breakdown[CONST_ACC_R][HIT] = 22784
	Total_core_cache_stats_breakdown[CONST_ACC_R][HIT_RESERVED] = 0
	Total_core_cache_stats_breakdown[CONST_ACC_R][MISS] = 1792
	Total_core_cache_stats_breakdown[CONST_ACC_R][RESERVATION_FAIL] = 4886
	Total_core_cache_stats_breakdown[TEXTURE_ACC_R][HIT] = 0
	Total_core_cache_stats_breakdown[TEXTURE_ACC_R][HIT_RESERVED] = 0
	Total_core_cache_stats_breakdown[TEXTURE_ACC_R][MISS] = 0
	Total_core_cache_stats_breakdown[TEXTURE_ACC_R][RESERVATION_FAIL] = 0
	Total_core_cache_stats_breakdown[GLOBAL_ACC_W][HIT] = 0
	Total_core_cache_stats_breakdown[GLOBAL_ACC_W][HIT_RESERVED] = 0
	Total_core_cache_stats_breakdown[GLOBAL_ACC_W][MISS] = 0
	Total_core_cache_stats_breakdown[GLOBAL_ACC_W][RESERVATION_FAIL] = 0
	Total_core_cache_stats_breakdown[LOCAL_ACC_W][HIT] = 0
	Total_core_cache_stats_breakdown[LOCAL_ACC_W][HIT_RESERVED] = 0
	Total_core_cache_stats_breakdown[LOCAL_ACC_W][MISS] = 0
	Total_core_cache_stats_breakdown[LOCAL_ACC_W][RESERVATION_FAIL] = 0
	Total_core_cache_stats_breakdown[L1_WRBK_ACC][HIT] = 0
	Total_core_cache_stats_breakdown[L1_WRBK_ACC][HIT_RESERVED] = 0
	Total_core_cache_stats_breakdown[L1_WRBK_ACC][MISS] = 0
	Total_core_cache_stats_breakdown[L1_WRBK_ACC][RESERVATION_FAIL] = 0
	Total_core_cache_stats_breakdown[L2_WRBK_ACC][HIT] = 0
	Total_core_cache_stats_breakdown[L2_WRBK_ACC][HIT_RESERVED] = 0
	Total_core_cache_stats_breakdown[L2_WRBK_ACC][MISS] = 0
	Total_core_cache_stats_breakdown[L2_WRBK_ACC][RESERVATION_FAIL] = 0
	Total_core_cache_stats_breakdown[INST_ACC_R][HIT] = 37740
	Total_core_cache_stats_breakdown[INST_ACC_R][HIT_RESERVED] = 0
	Total_core_cache_stats_breakdown[INST_ACC_R][MISS] = 5412
	Total_core_cache_stats_breakdown[INST_ACC_R][RESERVATION_FAIL] = 15158
	Total_core_cache_stats_breakdown[L1_WR_ALLOC_R][HIT] = 0
	Total_core_cache_stats_breakdown[L1_WR_ALLOC_R][HIT_RESERVED] = 0
	Total_core_cache_stats_breakdown[L1_WR_ALLOC_R][MISS] = 0
	Total_core_cache_stats_breakdown[L1_WR_ALLOC_R][RESERVATION_FAIL] = 0
	Total_core_cache_stats_breakdown[L2_WR_ALLOC_R][HIT] = 0
	Total_core_cache_stats_breakdown[L2_WR_ALLOC_R][HIT_RESERVED] = 0
	Total_core_cache_stats_breakdown[L2_WR_ALLOC_R][MISS] = 0
	Total_core_cache_stats_breakdown[L2_WR_ALLOC_R][RESERVATION_FAIL] = 0
	Total_core_cache_stats_breakdown[CONST_ACC_R][TOTAL_ACCESS] = 24576
	Total_core_cache_stats_breakdown[INST_ACC_R][TOTAL_ACCESS] = 43152
Shader 0 warp_id issue ditsribution:
warp_id:
0, 1, 2, 3, 4, 5, 6, 7, 8, 9, 10, 11, 12, 13, 14, 15, 16, 17, 18, 19, 20, 21, 22, 23, 24, 25, 26, 27, 28, 29, 30, 31, 32, 33, 34, 35, 36, 37, 38, 39, 40, 41, 42, 43, 44, 45, 46, 47, 48, 49, 50, 51, 52, 53, 54, 55, 56, 57, 58, 59, 60, 61, 62, 63, 
distro:
44, 44, 43, 44, 43, 44, 43, 44, 44, 44, 44, 44, 44, 44, 44, 44, 44, 44, 44, 44, 44, 44, 44, 44, 44, 44, 44, 44, 44, 44, 44, 44, 44, 44, 44, 44, 44, 44, 44, 44, 44, 44, 44, 44, 44, 44, 44, 44, 44, 44, 44, 44, 44, 44, 44, 44, 44, 44, 44, 44, 44, 44, 44, 44, 
gpgpu_n_tot_thrd_icount = 2499680
gpgpu_n_tot_w_icount = 78115
gpgpu_n_stall_shd_mem = 5198
gpgpu_n_mem_read_local = 0
gpgpu_n_mem_write_local = 0
gpgpu_n_mem_read_global = 4138
gpgpu_n_mem_write_global = 49
gpgpu_n_mem_texture = 0
gpgpu_n_mem_const = 28
gpgpu_n_load_insn  = 131114
gpgpu_n_store_insn = 49
gpgpu_n_shmem_insn = 0
gpgpu_n_tex_insn = 0
gpgpu_n_const_mem_insn = 0
gpgpu_n_param_mem_insn = 786432
gpgpu_n_shmem_bkconflict = 0
gpgpu_n_cache_bkconflict = 0
gpgpu_n_intrawarp_mshr_merge = 0
gpgpu_n_cmem_portconflict = 4886
gpgpu_stall_shd_mem[c_mem][bk_conf] = 4886
gpgpu_stall_shd_mem[c_mem][mshr_rc] = 0
gpgpu_stall_shd_mem[c_mem][icnt_rc] = 0
gpgpu_stall_shd_mem[c_mem][data_port_stall] = 0
gpgpu_stall_shd_mem[t_mem][mshr_rc] = 0
gpgpu_stall_shd_mem[t_mem][icnt_rc] = 0
gpgpu_stall_shd_mem[t_mem][data_port_stall] = 0
gpgpu_stall_shd_mem[s_mem][bk_conf] = 0
gpgpu_stall_shd_mem[gl_mem][bk_conf] = 0
gpgpu_stall_shd_mem[gl_mem][coal_stall] = 0
gpgpu_stall_shd_mem[gl_mem][data_port_stall] = 0
gpgpu_stall_shd_mem[g_mem_ld][mshr_rc] = 0
[...]
F:  5796172----T:  5798777 	 St: 803d0000 Sz: 4096 	 Sm: 0 	 T: memcpy_h2d(1.758947)
F:  5798777----T:  5801382 	 St: 803d1000 Sz: 4096 	 Sm: 0 	 T: memcpy_h2d(1.758947)
F:  5801382----T:  5803987 	 St: 803c7000 Sz: 4096 	 Sm: 0 	 T: memcpy_h2d(1.758947)
F:  5803987----T:  5806592 	 St: 803c8000 Sz: 4096 	 Sm: 0 	 T: memcpy_h2d(1.758947)
F:  5806592----T:  5809197 	 St: 803a6000 Sz: 4096 	 Sm: 0 	 T: memcpy_h2d(1.758947)
F:  5809197----T:  5811802 	 St: 803a9000 Sz: 4096 	 Sm: 0 	 T: memcpy_h2d(1.758947)
F:  5811802----T:  5814407 	 St: 803b2000 Sz: 4096 	 Sm: 0 	 T: memcpy_h2d(1.758947)
F:  5814407----T:  5817012 	 St: 803ca000 Sz: 4096 	 Sm: 0 	 T: memcpy_h2d(1.758947)
F:  5817012----T:  5819617 	 St: 803d3000 Sz: 4096 	 Sm: 0 	 T: memcpy_h2d(1.758947)
F:  5819617----T:  5822222 	 St: 803cd000 Sz: 4096 	 Sm: 0 	 T: memcpy_h2d(1.758947)
F:  5822222----T:  5824827 	 St: 803cb000 Sz: 4096 	 Sm: 0 	 T: memcpy_h2d(1.758947)
F:  5824827----T:  5827432 	 St: 803aa000 Sz: 4096 	 Sm: 0 	 T: memcpy_h2d(1.758947)
F:  5827432----T:  5830037 	 St: 803ac000 Sz: 4096 	 Sm: 0 	 T: memcpy_h2d(1.758947)
F:  5830037----T:  5832642 	 St: 803ce000 Sz: 4096 	 Sm: 0 	 T: memcpy_h2d(1.758947)
F:  5832642----T:  5835247 	 St: 803c5000 Sz: 4096 	 Sm: 0 	 T: memcpy_h2d(1.758947)
F:  5835247----T:  5837852 	 St: 803d4000 Sz: 4096 	 Sm: 0 	 T: memcpy_h2d(1.758947)
F:  5837852----T:  5840457 	 St: 803b3000 Sz: 4096 	 Sm: 0 	 T: memcpy_h2d(1.758947)
F:  5840457----T:  5843062 	 St: 803d2000 Sz: 4096 	 Sm: 0 	 T: memcpy_h2d(1.758947)
F:  5843062----T:  5845667 	 St: 803c9000 Sz: 4096 	 Sm: 0 	 T: memcpy_h2d(1.758947)
F:  5845667----T:  5848272 	 St: 803a7000 Sz: 4096 	 Sm: 0 	 T: memcpy_h2d(1.758947)
F:  5848272----T:  5850877 	 St: 803cf000 Sz: 4096 	 Sm: 0 	 T: memcpy_h2d(1.758947)
F:  5850877----T:  5853482 	 St: 803cc000 Sz: 4096 	 Sm: 0 	 T: memcpy_h2d(1.758947)
F:  5853482----T:  5856087 	 St: 803ab000 Sz: 4096 	 Sm: 0 	 T: memcpy_h2d(1.758947)
F:  5856087----T:  5858692 	 St: 803ad000 Sz: 4096 	 Sm: 0 	 T: memcpy_h2d(1.758947)
F:  5858692----T:  5861297 	 St: 803a8000 Sz: 4096 	 Sm: 0 	 T: memcpy_h2d(1.758947)
F:  5861297----T:  5863902 	 St: 803ae000 Sz: 4096 	 Sm: 0 	 T: memcpy_h2d(1.758947)
F:  5863902----T:  5866507 	 St: 803b0000 Sz: 4096 	 Sm: 0 	 T: memcpy_h2d(1.758947)
F:  5866507----T:  5869112 	 St: 803af000 Sz: 4096 	 Sm: 0 	 T: memcpy_h2d(1.758947)
F:  5869112----T:  5871717 	 St: 803b1000 Sz: 4096 	 Sm: 0 	 T: memcpy_h2d(1.758947)
F:  5871717----T:  5874322 	 St: 803b4000 Sz: 4096 	 Sm: 0 	 T: memcpy_h2d(1.758947)
F:  5874322----T:  5876927 	 St: 803c6000 Sz: 4096 	 Sm: 0 	 T: memcpy_h2d(1.758947)
F:  5876927----T:  5879532 	 St: 803a5000 Sz: 4096 	 Sm: 0 	 T: memcpy_h2d(1.758947)
F:  5879999----T:  5882604 	 St: 802ba000 Sz: 4096 	 Sm: 0 	 T: memcpy_h2d(1.758947)
F:  5880000----T:  5888702 	 St: 80275000 Sz: 65536 	 Sm: 0 	 T: write_back(5.875760)
F:  5882604----T:  5885209 	 St: 802be000 Sz: 4096 	 Sm: 0 	 T: memcpy_h2d(1.758947)
F:  5885209----T:  5887814 	 St: 802c0000 Sz: 4096 	 Sm: 0 	 T: memcpy_h2d(1.758947)
F:  5887814----T:  5890419 	 St: 802b5000 Sz: 4096 	 Sm: 0 	 T: memcpy_h2d(1.758947)
F:  5888703----T:  5897405 	 St: 802c5000 Sz: 65536 	 Sm: 0 	 T: write_back(5.875760)
F:  5890419----T:  5893024 	 St: 802b9000 Sz: 4096 	 Sm: 0 	 T: memcpy_h2d(1.758947)
F:  5893024----T:  5895629 	 St: 802bb000 Sz: 4096 	 Sm: 0 	 T: memcpy_h2d(1.758947)
F:  5895629----T:  5898234 	 St: 802bc000 Sz: 4096 	 Sm: 0 	 T: memcpy_h2d(1.758947)
F:  5898234----T:  5900839 	 St: 802bd000 Sz: 4096 	 Sm: 0 	 T: memcpy_h2d(1.758947)
F:  5900839----T:  5903444 	 St: 802b8000 Sz: 4096 	 Sm: 0 	 T: memcpy_h2d(1.758947)
F:  5903444----T:  5906049 	 St: 802c3000 Sz: 4096 	 Sm: 0 	 T: memcpy_h2d(1.758947)
F:  5906049----T:  5908654 	 St: 802c4000 Sz: 4096 	 Sm: 0 	 T: memcpy_h2d(1.758947)
F:  5906476----T:  5915178 	 St: 80255000 Sz: 65536 	 Sm: 0 	 T: write_back(5.875760)
F:  5908654----T:  5911259 	 St: 802c1000 Sz: 4096 	 Sm: 0 	 T: memcpy_h2d(1.758947)
F:  5911259----T:  5913864 	 St: 802b6000 Sz: 4096 	 Sm: 0 	 T: memcpy_h2d(1.758947)
F:  5913864----T:  5916469 	 St: 802c2000 Sz: 4096 	 Sm: 0 	 T: memcpy_h2d(1.758947)
F:  5916469----T:  5919074 	 St: 802b7000 Sz: 4096 	 Sm: 0 	 T: memcpy_h2d(1.758947)
F:  5919074----T:  5921679 	 St: 802bf000 Sz: 4096 	 Sm: 0 	 T: memcpy_h2d(1.758947)
F:  5921679----T:  5924284 	 St: 8027f000 Sz: 4096 	 Sm: 0 	 T: memcpy_h2d(1.758947)
F:  5924284----T:  5926889 	 St: 80455000 Sz: 4096 	 Sm: 0 	 T: memcpy_h2d(1.758947)
F:  5926889----T:  5929494 	 St: 80456000 Sz: 4096 	 Sm: 0 	 T: memcpy_h2d(1.758947)
F:  5929494----T:  5932099 	 St: 80457000 Sz: 4096 	 Sm: 0 	 T: memcpy_h2d(1.758947)
F:  5932099----T:  5934704 	 St: 80460000 Sz: 4096 	 Sm: 0 	 T: memcpy_h2d(1.758947)
F:  5934704----T:  5937309 	 St: 80461000 Sz: 4096 	 Sm: 0 	 T: memcpy_h2d(1.758947)
F:  5937309----T:  5939914 	 St: 80462000 Sz: 4096 	 Sm: 0 	 T: memcpy_h2d(1.758947)
F:  5939914----T:  5942519 	 St: 80463000 Sz: 4096 	 Sm: 0 	 T: memcpy_h2d(1.758947)
F:  5942519----T:  5945124 	 St: 80466000 Sz: 4096 	 Sm: 0 	 T: memcpy_h2d(1.758947)
F:  5945124----T:  5947729 	 St: 80467000 Sz: 4096 	 Sm: 0 	 T: memcpy_h2d(1.758947)
F:  5947729----T:  5950334 	 St: 80468000 Sz: 4096 	 Sm: 0 	 T: memcpy_h2d(1.758947)
F:  5950334----T:  5952939 	 St: 80469000 Sz: 4096 	 Sm: 0 	 T: memcpy_h2d(1.758947)
F:  5952939----T:  5955544 	 St: 80459000 Sz: 4096 	 Sm: 0 	 T: memcpy_h2d(1.758947)
F:  5955544----T:  5958149 	 St: 80458000 Sz: 4096 	 Sm: 0 	 T: memcpy_h2d(1.758947)
F:  5958149----T:  5960754 	 St: 8045a000 Sz: 4096 	 Sm: 0 	 T: memcpy_h2d(1.758947)
F:  5960754----T:  5963359 	 St: 8045b000 Sz: 4096 	 Sm: 0 	 T: memcpy_h2d(1.758947)
F:  5963359----T:  5965964 	 St: 8045c000 Sz: 4096 	 Sm: 0 	 T: memcpy_h2d(1.758947)
F:  5965964----T:  5968569 	 St: 8045d000 Sz: 4096 	 Sm: 0 	 T: memcpy_h2d(1.758947)
F:  5968569----T:  5971174 	 St: 8045e000 Sz: 4096 	 Sm: 0 	 T: memcpy_h2d(1.758947)
F:  5971174----T:  5973779 	 St: 8045f000 Sz: 4096 	 Sm: 0 	 T: memcpy_h2d(1.758947)
F:  5973779----T:  5976384 	 St: 8046f000 Sz: 4096 	 Sm: 0 	 T: memcpy_h2d(1.758947)
F:  5976384----T:  5978989 	 St: 80470000 Sz: 4096 	 Sm: 0 	 T: memcpy_h2d(1.758947)
F:  5978989----T:  5981594 	 St: 80471000 Sz: 4096 	 Sm: 0 	 T: memcpy_h2d(1.758947)
F:  5981594----T:  5984199 	 St: 80472000 Sz: 4096 	 Sm: 0 	 T: memcpy_h2d(1.758947)
F:  5984199----T:  5986804 	 St: 80473000 Sz: 4096 	 Sm: 0 	 T: memcpy_h2d(1.758947)
F:  5986804----T:  5989409 	 St: 80474000 Sz: 4096 	 Sm: 0 	 T: memcpy_h2d(1.758947)
F:  5989409----T:  5992014 	 St: 8046a000 Sz: 4096 	 Sm: 0 	 T: memcpy_h2d(1.758947)
F:  5992014----T:  5994619 	 St: 8046b000 Sz: 4096 	 Sm: 0 	 T: memcpy_h2d(1.758947)
F:  5994619----T:  5997224 	 St: 8046c000 Sz: 4096 	 Sm: 0 	 T: memcpy_h2d(1.758947)
F:  5997224----T:  5999829 	 St: 8046d000 Sz: 4096 	 Sm: 0 	 T: memcpy_h2d(1.758947)
F:  5999829----T:  6002434 	 St: 8046e000 Sz: 4096 	 Sm: 0 	 T: memcpy_h2d(1.758947)
F:  6002434----T:  6005039 	 St: 80464000 Sz: 4096 	 Sm: 0 	 T: memcpy_h2d(1.758947)
F:  6005039----T:  6007644 	 St: 80465000 Sz: 4096 	 Sm: 0 	 T: memcpy_h2d(1.758947)
F:  6233941----T:  6276721 	 	 	 Kl: 16 	 Sm: 0 	 T: kernel_launch(28.885887)
F:  6234546----T:  6237151 	 St: 802c8000 Sz: 4096 	 Sm: 0 	 T: memcpy_h2d(1.758947)
F:  6234568----T:  6243270 	 St: 80375000 Sz: 65536 	 Sm: 0 	 T: write_back(5.875760)
F:  6237151----T:  6239756 	 St: 802cb000 Sz: 4096 	 Sm: 0 	 T: memcpy_h2d(1.758947)
F:  6239756----T:  6242361 	 St: 802c7000 Sz: 4096 	 Sm: 0 	 T: memcpy_h2d(1.758947)
F:  6242361----T:  6244966 	 St: 802c6000 Sz: 4096 	 Sm: 0 	 T: memcpy_h2d(1.758947)
F:  6244966----T:  6247571 	 St: 802c9000 Sz: 4096 	 Sm: 0 	 T: memcpy_h2d(1.758947)
F:  6247571----T:  6250176 	 St: 802ca000 Sz: 4096 	 Sm: 0 	 T: memcpy_h2d(1.758947)
F:  6250176----T:  6252781 	 St: 802c5000 Sz: 4096 	 Sm: 0 	 T: memcpy_h2d(1.758947)
F:  6252781----T:  6255386 	 St: 802ce000 Sz: 4096 	 Sm: 0 	 T: memcpy_h2d(1.758947)
F:  6255386----T:  6257991 	 St: 802cd000 Sz: 4096 	 Sm: 0 	 T: memcpy_h2d(1.758947)
F:  6257991----T:  6260596 	 St: 802cc000 Sz: 4096 	 Sm: 0 	 T: memcpy_h2d(1.758947)
F:  6260596----T:  6263201 	 St: 802cf000 Sz: 4096 	 Sm: 0 	 T: memcpy_h2d(1.758947)
F:  6263201----T:  6265806 	 St: 802d2000 Sz: 4096 	 Sm: 0 	 T: memcpy_h2d(1.758947)
F:  6265806----T:  6268411 	 St: 802d1000 Sz: 4096 	 Sm: 0 	 T: memcpy_h2d(1.758947)
F:  6268411----T:  6271016 	 St: 802d0000 Sz: 4096 	 Sm: 0 	 T: memcpy_h2d(1.758947)
F:  6271372----T:  6273977 	 St: 802d4000 Sz: 4096 	 Sm: 0 	 T: memcpy_h2d(1.758947)
F:  6273977----T:  6276582 	 St: 802d3000 Sz: 4096 	 Sm: 0 	 T: memcpy_h2d(1.758947)
F:  6276721----T:  6279256 	 St: 80000000 Sz: 1 	 Sm: 0 	 T: memcpy_d2h(1.711681)
F:  6279257----T:  6281792 	 St: 80000000 Sz: 1 	 Sm: 0 	 T: memcpy_h2d(1.711681)
F:  6503943----T:  6773478 	 	 	 Kl: 17 	 Sm: 0 	 T: kernel_launch(181.995270)
F:  6504543----T:  6507148 	 St: 8025e000 Sz: 4096 	 Sm: 0 	 T: memcpy_h2d(1.758947)
F:  6504553----T:  6513255 	 St: 80335000 Sz: 65536 	 Sm: 0 	 T: write_back(5.875760)
F:  6507148----T:  6509753 	 St: 8025f000 Sz: 4096 	 Sm: 0 	 T: memcpy_h2d(1.758947)
F:  6509753----T:  6512358 	 St: 8025c000 Sz: 4096 	 Sm: 0 	 T: memcpy_h2d(1.758947)
F:  6512358----T:  6514963 	 St: 80256000 Sz: 4096 	 Sm: 0 	 T: memcpy_h2d(1.758947)
F:  6513255----T:  6521957 	 St: 80385000 Sz: 65536 	 Sm: 0 	 T: write_back(5.875760)
F:  6514963----T:  6517568 	 St: 8025b000 Sz: 4096 	 Sm: 0 	 T: memcpy_h2d(1.758947)
F:  6517568----T:  6520173 	 St: 80257000 Sz: 4096 	 Sm: 0 	 T: memcpy_h2d(1.758947)
F:  6520173----T:  6522778 	 St: 80258000 Sz: 4096 	 Sm: 0 	 T: memcpy_h2d(1.758947)
F:  6521957----T:  6530659 	 St: 80315000 Sz: 65536 	 Sm: 0 	 T: write_back(5.875760)
F:  6522778----T:  6525383 	 St: 8025a000 Sz: 4096 	 Sm: 0 	 T: memcpy_h2d(1.758947)
F:  6525383----T:  6527988 	 St: 80260000 Sz: 4096 	 Sm: 0 	 T: memcpy_h2d(1.758947)
F:  6527988----T:  6530593 	 St: 8025d000 Sz: 4096 	 Sm: 0 	 T: memcpy_h2d(1.758947)
F:  6530593----T:  6533198 	 St: 80255000 Sz: 4096 	 Sm: 0 	 T: memcpy_h2d(1.758947)
F:  6530660----T:  6539362 	 St: 80345000 Sz: 65536 	 Sm: 0 	 T: write_back(5.875760)
F:  6533198----T:  6535803 	 St: 80259000 Sz: 4096 	 Sm: 0 	 T: memcpy_h2d(1.758947)
F:  6535803----T:  6538408 	 St: 80264000 Sz: 4096 	 Sm: 0 	 T: memcpy_h2d(1.758947)
F:  6538408----T:  6541013 	 St: 80263000 Sz: 4096 	 Sm: 0 	 T: memcpy_h2d(1.758947)
F:  6541013----T:  6543618 	 St: 8027a000 Sz: 4096 	 Sm: 0 	 T: memcpy_h2d(1.758947)
F:  6541443----T:  6550145 	 St: 80395000 Sz: 65536 	 Sm: 0 	 T: write_back(5.875760)
F:  6543618----T:  6546223 	 St: 80277000 Sz: 4096 	 Sm: 0 	 T: memcpy_h2d(1.758947)
F:  6546223----T:  6548828 	 St: 80262000 Sz: 4096 	 Sm: 0 	 T: memcpy_h2d(1.758947)
F:  6548828----T:  6551433 	 St: 8027b000 Sz: 4096 	 Sm: 0 	 T: memcpy_h2d(1.758947)
F:  6551433----T:  6554038 	 St: 8027c000 Sz: 4096 	 Sm: 0 	 T: memcpy_h2d(1.758947)
F:  6554038----T:  6556643 	 St: 80276000 Sz: 4096 	 Sm: 0 	 T: memcpy_h2d(1.758947)
F:  6554474----T:  6563176 	 St: 803f5000 Sz: 65536 	 Sm: 0 	 T: write_back(5.875760)
F:  6556643----T:  6559248 	 St: 80261000 Sz: 4096 	 Sm: 0 	 T: memcpy_h2d(1.758947)
F:  6559248----T:  6561853 	 St: 80279000 Sz: 4096 	 Sm: 0 	 T: memcpy_h2d(1.758947)
F:  6561853----T:  6564458 	 St: 80278000 Sz: 4096 	 Sm: 0 	 T: memcpy_h2d(1.758947)
F:  6564458----T:  6567063 	 St: 80275000 Sz: 4096 	 Sm: 0 	 T: memcpy_h2d(1.758947)
F:  6567063----T:  6569668 	 St: 80282000 Sz: 4096 	 Sm: 0 	 T: memcpy_h2d(1.758947)
F:  6569668----T:  6572273 	 St: 8027e000 Sz: 4096 	 Sm: 0 	 T: memcpy_h2d(1.758947)
F:  6572273----T:  6574878 	 St: 80283000 Sz: 4096 	 Sm: 0 	 T: memcpy_h2d(1.758947)
F:  6572705----T:  6581407 	 St: 80425000 Sz: 65536 	 Sm: 0 	 T: write_back(5.875760)
F:  6574878----T:  6577483 	 St: 80281000 Sz: 4096 	 Sm: 0 	 T: memcpy_h2d(1.758947)
F:  6577483----T:  6580088 	 St: 8027d000 Sz: 4096 	 Sm: 0 	 T: memcpy_h2d(1.758947)
F:  6580088----T:  6582693 	 St: 80280000 Sz: 4096 	 Sm: 0 	 T: memcpy_h2d(1.758947)
F:  6582693----T:  6585298 	 St: 80284000 Sz: 4096 	 Sm: 0 	 T: memcpy_h2d(1.758947)
F:  6585298----T:  6587903 	 St: 80379000 Sz: 4096 	 Sm: 0 	 T: memcpy_h2d(1.758947)
F:  6587903----T:  6590508 	 St: 8037c000 Sz: 4096 	 Sm: 0 	 T: memcpy_h2d(1.758947)
F:  6590508----T:  6593113 	 St: 8037f000 Sz: 4096 	 Sm: 0 	 T: memcpy_h2d(1.758947)
F:  6593113----T:  6595718 	 St: 80375000 Sz: 4096 	 Sm: 0 	 T: memcpy_h2d(1.758947)
F:  6595718----T:  6598323 	 St: 8037e000 Sz: 4096 	 Sm: 0 	 T: memcpy_h2d(1.758947)
F:  6598323----T:  6600928 	 St: 80376000 Sz: 4096 	 Sm: 0 	 T: memcpy_h2d(1.758947)
F:  6600928----T:  6603533 	 St: 80382000 Sz: 4096 	 Sm: 0 	 T: memcpy_h2d(1.758947)
F:  6603533----T:  6606138 	 St: 80377000 Sz: 4096 	 Sm: 0 	 T: memcpy_h2d(1.758947)
F:  6606138----T:  6608743 	 St: 80378000 Sz: 4096 	 Sm: 0 	 T: memcpy_h2d(1.758947)
F:  6608743----T:  6611348 	 St: 8037d000 Sz: 4096 	 Sm: 0 	 T: memcpy_h2d(1.758947)
F:  6611348----T:  6613953 	 St: 80383000 Sz: 4096 	 Sm: 0 	 T: memcpy_h2d(1.758947)
F:  6613953----T:  6616558 	 St: 8037a000 Sz: 4096 	 Sm: 0 	 T: memcpy_h2d(1.758947)
F:  6616558----T:  6619163 	 St: 8037b000 Sz: 4096 	 Sm: 0 	 T: memcpy_h2d(1.758947)
F:  6619163----T:  6621768 	 St: 80384000 Sz: 4096 	 Sm: 0 	 T: memcpy_h2d(1.758947)
F:  6621768----T:  6624373 	 St: 80380000 Sz: 4096 	 Sm: 0 	 T: memcpy_h2d(1.758947)
F:  6624373----T:  6626978 	 St: 80381000 Sz: 4096 	 Sm: 0 	 T: memcpy_h2d(1.758947)
F:  6626978----T:  6629583 	 St: 80341000 Sz: 4096 	 Sm: 0 	 T: memcpy_h2d(1.758947)
F:  6629583----T:  6632188 	 St: 80340000 Sz: 4096 	 Sm: 0 	 T: memcpy_h2d(1.758947)
F:  6632188----T:  6634793 	 St: 80342000 Sz: 4096 	 Sm: 0 	 T: memcpy_h2d(1.758947)
F:  6634793----T:  6637398 	 St: 80343000 Sz: 4096 	 Sm: 0 	 T: memcpy_h2d(1.758947)
F:  6637398----T:  6640003 	 St: 80344000 Sz: 4096 	 Sm: 0 	 T: memcpy_h2d(1.758947)
F:  6640003----T:  6642608 	 St: 8033a000 Sz: 4096 	 Sm: 0 	 T: memcpy_h2d(1.758947)
F:  6642608----T:  6645213 	 St: 8033b000 Sz: 4096 	 Sm: 0 	 T: memcpy_h2d(1.758947)
F:  6645213----T:  6647818 	 St: 8033c000 Sz: 4096 	 Sm: 0 	 T: memcpy_h2d(1.758947)
F:  6647818----T:  6650423 	 St: 80337000 Sz: 4096 	 Sm: 0 	 T: memcpy_h2d(1.758947)
F:  6650423----T:  6653028 	 St: 80338000 Sz: 4096 	 Sm: 0 	 T: memcpy_h2d(1.758947)
F:  6653028----T:  6655633 	 St: 80335000 Sz: 4096 	 Sm: 0 	 T: memcpy_h2d(1.758947)
F:  6655633----T:  6658238 	 St: 8033d000 Sz: 4096 	 Sm: 0 	 T: memcpy_h2d(1.758947)
F:  6658238----T:  6660843 	 St: 8033e000 Sz: 4096 	 Sm: 0 	 T: memcpy_h2d(1.758947)
F:  6660843----T:  6663448 	 St: 8033f000 Sz: 4096 	 Sm: 0 	 T: memcpy_h2d(1.758947)
F:  6663448----T:  6666053 	 St: 80351000 Sz: 4096 	 Sm: 0 	 T: memcpy_h2d(1.758947)
F:  6666053----T:  6668658 	 St: 80352000 Sz: 4096 	 Sm: 0 	 T: memcpy_h2d(1.758947)
F:  6668658----T:  6671263 	 St: 80353000 Sz: 4096 	 Sm: 0 	 T: memcpy_h2d(1.758947)
F:  6671263----T:  6673868 	 St: 80354000 Sz: 4096 	 Sm: 0 	 T: memcpy_h2d(1.758947)
F:  6673868----T:  6676473 	 St: 8034f000 Sz: 4096 	 Sm: 0 	 T: memcpy_h2d(1.758947)
F:  6676473----T:  6679078 	 St: 8034e000 Sz: 4096 	 Sm: 0 	 T: memcpy_h2d(1.758947)
F:  6679078----T:  6681683 	 St: 80350000 Sz: 4096 	 Sm: 0 	 T: memcpy_h2d(1.758947)
F:  6681683----T:  6684288 	 St: 80393000 Sz: 4096 	 Sm: 0 	 T: memcpy_h2d(1.758947)
F:  6684288----T:  6686893 	 St: 80394000 Sz: 4096 	 Sm: 0 	 T: memcpy_h2d(1.758947)
F:  6686893----T:  6689498 	 St: 80396000 Sz: 4096 	 Sm: 0 	 T: memcpy_h2d(1.758947)
F:  6689498----T:  6692103 	 St: 80395000 Sz: 4096 	 Sm: 0 	 T: memcpy_h2d(1.758947)
F:  6692103----T:  6694708 	 St: 8038b000 Sz: 4096 	 Sm: 0 	 T: memcpy_h2d(1.758947)
F:  6694708----T:  6697313 	 St: 8038c000 Sz: 4096 	 Sm: 0 	 T: memcpy_h2d(1.758947)
F:  6697313----T:  6699918 	 St: 8038d000 Sz: 4096 	 Sm: 0 	 T: memcpy_h2d(1.758947)
F:  6699918----T:  6702523 	 St: 8034b000 Sz: 4096 	 Sm: 0 	 T: memcpy_h2d(1.758947)
F:  6702523----T:  6705128 	 St: 8034c000 Sz: 4096 	 Sm: 0 	 T: memcpy_h2d(1.758947)
F:  6705128----T:  6707733 	 St: 8034d000 Sz: 4096 	 Sm: 0 	 T: memcpy_h2d(1.758947)
F:  6707733----T:  6710338 	 St: 80397000 Sz: 4096 	 Sm: 0 	 T: memcpy_h2d(1.758947)
F:  6710338----T:  6712943 	 St: 80398000 Sz: 4096 	 Sm: 0 	 T: memcpy_h2d(1.758947)
F:  6712943----T:  6715548 	 St: 80399000 Sz: 4096 	 Sm: 0 	 T: memcpy_h2d(1.758947)
F:  6715548----T:  6718153 	 St: 8039a000 Sz: 4096 	 Sm: 0 	 T: memcpy_h2d(1.758947)
F:  6718153----T:  6720758 	 St: 8039b000 Sz: 4096 	 Sm: 0 	 T: memcpy_h2d(1.758947)
F:  6720758----T:  6723363 	 St: 8039c000 Sz: 4096 	 Sm: 0 	 T: memcpy_h2d(1.758947)
F:  6723363----T:  6725968 	 St: 80388000 Sz: 4096 	 Sm: 0 	 T: memcpy_h2d(1.758947)
F:  6725968----T:  6728573 	 St: 80389000 Sz: 4096 	 Sm: 0 	 T: memcpy_h2d(1.758947)
F:  6728573----T:  6731178 	 St: 8038a000 Sz: 4096 	 Sm: 0 	 T: memcpy_h2d(1.758947)
F:  6731178----T:  6733783 	 St: 80349000 Sz: 4096 	 Sm: 0 	 T: memcpy_h2d(1.758947)
F:  6733783----T:  6736388 	 St: 8034a000 Sz: 4096 	 Sm: 0 	 T: memcpy_h2d(1.758947)
F:  6736388----T:  6738993 	 St: 80391000 Sz: 4096 	 Sm: 0 	 T: memcpy_h2d(1.758947)
F:  6738993----T:  6741598 	 St: 8038e000 Sz: 4096 	 Sm: 0 	 T: memcpy_h2d(1.758947)
F:  6741598----T:  6744203 	 St: 8038f000 Sz: 4096 	 Sm: 0 	 T: memcpy_h2d(1.758947)
F:  6744203----T:  6746808 	 St: 80390000 Sz: 4096 	 Sm: 0 	 T: memcpy_h2d(1.758947)
F:  6746808----T:  6749413 	 St: 80385000 Sz: 4096 	 Sm: 0 	 T: memcpy_h2d(1.758947)
F:  6749413----T:  6752018 	 St: 80386000 Sz: 4096 	 Sm: 0 	 T: memcpy_h2d(1.758947)
F:  6752018----T:  6754623 	 St: 80387000 Sz: 4096 	 Sm: 0 	 T: memcpy_h2d(1.758947)
F:  6754623----T:  6757228 	 St: 8039f000 Sz: 4096 	 Sm: 0 	 T: memcpy_h2d(1.758947)
F:  6757228----T:  6759833 	 St: 803a0000 Sz: 4096 	 Sm: 0 	 T: memcpy_h2d(1.758947)
F:  6759833----T:  6762438 	 St: 803a1000 Sz: 4096 	 Sm: 0 	 T: memcpy_h2d(1.758947)
F:  6762438----T:  6765043 	 St: 803a2000 Sz: 4096 	 Sm: 0 	 T: memcpy_h2d(1.758947)
F:  6765043----T:  6767648 	 St: 8039d000 Sz: 4096 	 Sm: 0 	 T: memcpy_h2d(1.758947)
F:  6767648----T:  6770253 	 St: 8039e000 Sz: 4096 	 Sm: 0 	 T: memcpy_h2d(1.758947)
F:  6995628----T:  6996803 	 	 	 Kl: 18 	 Sm: 0 	 T: kernel_launch(0.793383)
F:  6996803----T:  6999338 	 St: 80000000 Sz: 1 	 Sm: 0 	 T: memcpy_d2h(1.711681)
F:  6999339----T:  7001874 	 St: 80000000 Sz: 1 	 Sm: 0 	 T: memcpy_h2d(1.711681)
F:  7224025----T:  7227931 	 	 	 Kl: 19 	 Sm: 0 	 T: kernel_launch(2.637407)
F:  7225003----T:  7227608 	 St: 8031e000 Sz: 4096 	 Sm: 0 	 T: memcpy_h2d(1.758947)
F:  7450081----T:  7451053 	 	 	 Kl: 20 	 Sm: 0 	 T: kernel_launch(0.656313)
F:  7451053----T:  7453588 	 St: 80000000 Sz: 1 	 Sm: 0 	 T: memcpy_d2h(1.711681)
F:  7453589----T:  7456194 	 St: 0 Sz: 4096 	 Sm: 0 	 T: device_sync(1.758947)
F:  7453589----T:  7461829 	 St: 0 Sz: 61440 	 Sm: 0 	 T: device_sync(5.563808)
F:  7464434----T:  7467039 	 St: 0 Sz: 4096 	 Sm: 0 	 T: device_sync(1.758947)
F:  7464434----T:  7472674 	 St: 0 Sz: 61440 	 Sm: 0 	 T: device_sync(5.563808)
F:  7475279----T:  7477884 	 St: 0 Sz: 4096 	 Sm: 0 	 T: device_sync(1.758947)
F:  7475279----T:  7490974 	 St: 0 Sz: 126976 	 Sm: 0 	 T: device_sync(10.597569)
F:  7493579----T:  7496184 	 St: 0 Sz: 4096 	 Sm: 0 	 T: device_sync(1.758947)
F:  7493579----T:  7524302 	 St: 0 Sz: 258048 	 Sm: 0 	 T: device_sync(20.744766)
Tot_prefetch_time: 0(cycle), 0.000000(us)
Tot_kernel_exec_time: 2959869(cycle), 1998.561157(us)
Tot_kernel_exec_time_and_fault_time: 67738809(cycle), 45738.558594(us)
Tot_memcpy_h2d_time: 2918311(cycle), 1970.500366(us)
Tot_memcpy_d2h_time: 25350(cycle), 17.116814(us)
Tot_memcpy_time: 2943661(cycle), 1987.617188(us)
Tot_devicesync_time: 73318(cycle), 49.505741(us)
Tot_writeback_time: 617842(cycle), 417.178925(us)
Tot_rdma_time: 0(cycle), 0.000000(us)
Tot_memcpy_d2h_sync_wb_time: 716510(cycle), 483.801483(us)
GPGPU-Sim: *** exit detected ***
