

        *** GPGPU-Sim Simulator Version 3.2.2  [build gpgpu-sim_git-commit-7aab8bc3510e3baaa293a5a70e622cbe97784766_modified_0] ***


GPGPU-Sim PTX: simulation mode 0 (can change with PTX_SIM_MODE_FUNC environment variable:
               1=functional simulation only, 0=detailed performance simulator)
GPGPU-Sim: Configuration options:

-network_mode                           1 # Interconnection network mode
-inter_config_file   config_fermi_islip.icnt # Interconnection network config file
-gpgpu_ptx_use_cuobjdump                    1 # Use cuobjdump to extract ptx and sass from binaries
-gpgpu_experimental_lib_support                    0 # Try to extract code from cuda libraries [Broken because of unknown cudaGetExportTable]
-gpgpu_ptx_convert_to_ptxplus                    0 # Convert SASS (native ISA) to ptxplus and run ptxplus
-gpgpu_ptx_force_max_capability                   20 # Force maximum compute capability
-gpgpu_ptx_inst_debug_to_file                    0 # Dump executed instructions' debug information to file
-gpgpu_ptx_inst_debug_file       inst_debug.txt # Executed instructions' debug output file
-gpgpu_ptx_inst_debug_thread_uid                    1 # Thread UID for executed instructions' debug output
-gpgpu_simd_model                       1 # 1 = post-dominator
-gpgpu_shader_core_pipeline              2048:32 # shader core pipeline config, i.e., {<nthread>:<warpsize>}
-gpgpu_tex_cache:l1  16:128:24,L:R:m:N:L,F:128:4,128:2 # per-shader L1 texture cache  (READ-ONLY) config  {<nsets>:<bsize>:<assoc>,<rep>:<wr>:<alloc>:<wr_alloc>,<mshr>:<N>:<merge>,<mq>:<rf>}
-gpgpu_const_cache:l1 128:64:2,L:R:f:N:L,A:2:64,4 # per-shader L1 constant memory cache  (READ-ONLY) config  {<nsets>:<bsize>:<assoc>,<rep>:<wr>:<alloc>:<wr_alloc>,<mshr>:<N>:<merge>,<mq>} 
-gpgpu_cache:il1     8:128:4,L:R:f:N:L,A:2:48,4 # shader L1 instruction cache config  {<nsets>:<bsize>:<assoc>,<rep>:<wr>:<alloc>:<wr_alloc>,<mshr>:<N>:<merge>,<mq>} 
-gpgpu_cache:dl1     64:128:6,L:L:m:N:H,A:128:8,8 # per-shader L1 data cache config  {<nsets>:<bsize>:<assoc>,<rep>:<wr>:<alloc>:<wr_alloc>,<mshr>:<N>:<merge>,<mq> | none}
-gpgpu_cache:dl1PrefL1                 none # per-shader L1 data cache config  {<nsets>:<bsize>:<assoc>,<rep>:<wr>:<alloc>:<wr_alloc>,<mshr>:<N>:<merge>,<mq> | none}
-gpgpu_cache:dl1PrefShared                 none # per-shader L1 data cache config  {<nsets>:<bsize>:<assoc>,<rep>:<wr>:<alloc>:<wr_alloc>,<mshr>:<N>:<merge>,<mq> | none}
-gmem_skip_L1D                          1 # global memory access skip L1D cache (implements -Xptxas -dlcm=cg, default=no skip)
-gpgpu_perfect_mem                      0 # enable perfect memory mode (no cache miss)
-n_regfile_gating_group                    4 # group of lanes that should be read/written together)
-gpgpu_clock_gated_reg_file                    0 # enable clock gated reg file for power calculations
-gpgpu_clock_gated_lanes                    0 # enable clock gated lanes for power calculations
-gpgpu_shader_registers                65536 # Number of registers per shader core. Limits number of concurrent CTAs. (default 8192)
-gpgpu_shader_cta                      32 # Maximum number of concurrent CTAs in shader (default 8)
-gpgpu_num_cta_barriers                   16 # Maximum number of named barriers per CTA (default 16)
-gpgpu_n_clusters                      28 # number of processing clusters
-gpgpu_n_cores_per_cluster                    1 # number of simd cores per cluster
-gpgpu_n_cluster_ejection_buffer_size                    8 # number of packets in ejection buffer
-gpgpu_n_ldst_response_buffer_size                    2 # number of response packets in ld/st unit ejection buffer
-gpgpu_shmem_size                   16384 # Size of shared memory per shader core (default 16kB)
-gpgpu_shmem_size                   98304 # Size of shared memory per shader core (default 16kB)
-gpgpu_shmem_size_PrefL1                16384 # Size of shared memory per shader core (default 16kB)
-gpgpu_shmem_size_PrefShared                16384 # Size of shared memory per shader core (default 16kB)
-gpgpu_shmem_num_banks                   32 # Number of banks in the shared memory in each shader core (default 16)
-gpgpu_shmem_limited_broadcast                    0 # Limit shared memory to do one broadcast per cycle (default on)
-gpgpu_shmem_warp_parts                    1 # Number of portions a warp is divided into for shared memory bank conflict check 
-gpgpu_warpdistro_shader                   -1 # Specify which shader core to collect the warp size distribution from
-gpgpu_warp_issue_shader                    0 # Specify which shader core to collect the warp issue distribution from
-gpgpu_local_mem_map                    1 # Mapping from local memory space address to simulated GPU physical address space (default = enabled)
-gpgpu_num_reg_banks                   32 # Number of register banks (default = 8)
-gpgpu_reg_bank_use_warp_id                    0 # Use warp ID in mapping registers to banks (default = off)
-gpgpu_operand_collector_num_units_sp                   20 # number of collector units (default = 4)
-gpgpu_operand_collector_num_units_sfu                    4 # number of collector units (default = 4)
-gpgpu_operand_collector_num_units_mem                    8 # number of collector units (default = 2)
-gpgpu_operand_collector_num_units_gen                    0 # number of collector units (default = 0)
-gpgpu_operand_collector_num_in_ports_sp                    4 # number of collector unit in ports (default = 1)
-gpgpu_operand_collector_num_in_ports_sfu                    1 # number of collector unit in ports (default = 1)
-gpgpu_operand_collector_num_in_ports_mem                    1 # number of collector unit in ports (default = 1)
-gpgpu_operand_collector_num_in_ports_gen                    0 # number of collector unit in ports (default = 0)
-gpgpu_operand_collector_num_out_ports_sp                    4 # number of collector unit in ports (default = 1)
-gpgpu_operand_collector_num_out_ports_sfu                    1 # number of collector unit in ports (default = 1)
-gpgpu_operand_collector_num_out_ports_mem                    1 # number of collector unit in ports (default = 1)
-gpgpu_operand_collector_num_out_ports_gen                    0 # number of collector unit in ports (default = 0)
-gpgpu_coalesce_arch                   13 # Coalescing arch (default = 13, anything else is off for now)
-gpgpu_num_sched_per_core                    2 # Number of warp schedulers per core
-gpgpu_max_insn_issue_per_warp                    2 # Max number of instructions that can be issued per warp in one cycle by scheduler
-gpgpu_simt_core_sim_order                    1 # Select the simulation order of cores in a cluster (0=Fix, 1=Round-Robin)
-gpgpu_pipeline_widths        4,1,1,4,1,1,6 # Pipeline widths ID_OC_SP,ID_OC_SFU,ID_OC_MEM,OC_EX_SP,OC_EX_SFU,OC_EX_MEM,EX_WB
-gpgpu_num_sp_units                     4 # Number of SP units (default=1)
-gpgpu_num_sfu_units                    1 # Number of SF units (default=1)
-gpgpu_num_mem_units                    1 # Number if ldst units (default=1) WARNING: not hooked up to anything
-gpgpu_scheduler                      gto # Scheduler configuration: < lrr | gto | two_level_active > If two_level_active:<num_active_warps>:<inner_prioritization>:<outer_prioritization>For complete list of prioritization values see shader.h enum scheduler_prioritization_typeDefault: gto
-gpgpu_concurrent_kernel_sm                    0 # Support concurrent kernels on a SM (default = disabled)
-tlb_size                            4096 # Number of tlb entries per SM.
-gpgpu_dram_scheduler                    1 # 0 = fifo, 1 = FR-FCFS (defaul)
-gpgpu_dram_partition_queues              8:8:8:8 # i2$:$2d:d2$:$2i
-l2_ideal                               0 # Use a ideal L2 cache that always hit
-gpgpu_cache:dl2     64:128:16,L:B:m:W:L,A:1024:1024,4:0,32 # unified banked L2 data cache config  {<nsets>:<bsize>:<assoc>,<rep>:<wr>:<alloc>:<wr_alloc>,<mshr>:<N>:<merge>,<mq>}
-gpgpu_cache:dl2_texture_only                    0 # L2 cache used for texture only
-gpgpu_n_mem                           11 # number of memory modules (e.g. memory controllers) in gpu
-gpgpu_n_sub_partition_per_mchannel                    2 # number of memory subpartition in each memory module
-gpgpu_n_mem_per_ctrlr                    1 # number of memory chips per memory controller
-gpgpu_memlatency_stat                   14 # track and display latency statistics 0x2 enables MC, 0x4 enables queue logs
-gpgpu_frfcfs_dram_sched_queue_size                   64 # 0 = unlimited (default); # entries per chip
-gpgpu_dram_return_queue_size                  116 # 0 = unlimited (default); # entries per chip
-gpgpu_dram_buswidth                    4 # default = 4 bytes (8 bytes per cycle at DDR)
-gpgpu_dram_burst_length                    8 # Burst length of each DRAM request (default = 4 data bus cycle)
-dram_data_command_freq_ratio                    4 # Frequency ratio between DRAM data bus and command bus (default = 2 times, i.e. DDR)
-gpgpu_dram_timing_opt nbk=16:CCD=2:RRD=6:RCD=12:RAS=28:RP=12:RC=40: CL=12:WL=4:CDLR=5:WR=12:nbkgrp=1:CCDL=0:RTPL=0 # DRAM timing parameters = {nbk:tCCD:tRRD:tRCD:tRAS:tRP:tRC:CL:WL:tCDLR:tWR:nbkgrp:tCCDL:tRTPL}
-rop_latency                          120 # ROP queue latency (default 85)
-dram_latency                         100 # DRAM latency (default 30)
-gpgpu_mem_addr_mapping dramid@8;00000000.00000000.00000000.00000000.0000RRRR.RRRRRRRR.RBBBCCCC.BCCSSSSS # mapping memory address to dram model {dramid@<start bit>;<memory address map>}
-gpgpu_mem_addr_test                    0 # run sweep test to check address mapping for aliased address
-gpgpu_mem_address_mask                    1 # 0 = old addressing mask, 1 = new addressing mask, 2 = new add. mask + flipped bank sel and chip sel bits
-gpuwattch_xml_file  gpuwattch_geforcegtx1080ti.xml # GPUWattch XML file
-power_simulation_enabled                    1 # Turn on power simulator (1=On, 0=Off)
-power_per_cycle_dump                    0 # Dump detailed power output each cycle
-power_trace_enabled                    0 # produce a file for the power trace (1=On, 0=Off)
-power_trace_zlevel                     6 # Compression level of the power trace output log (0=no comp, 9=highest)
-steady_power_levels_enabled                    0 # produce a file for the steady power levels (1=On, 0=Off)
-steady_state_definition                  8:4 # allowed deviation:number of samples
-gpgpu_max_cycle                        0 # terminates gpu simulation early (0 = no limit)
-gpgpu_max_insn                         0 # terminates gpu simulation early (0 = no limit)
-gpgpu_max_cta                          0 # terminates gpu simulation early (0 = no limit)
-gpgpu_runtime_stat                   500 # display runtime statistics such as dram utilization {<freq>:<flag>}
-liveness_message_freq                    1 # Minimum number of seconds between simulation liveness messages (0 = always print)
-gpgpu_flush_l1_cache                    0 # Flush L1 cache at the end of each kernel call
-gpgpu_flush_l2_cache                    0 # Flush L2 cache at the end of each kernel call
-gpgpu_deadlock_detect                    0 # Stop the simulation at deadlock (1=on (default), 0=off)
-gpgpu_ptx_instruction_classification                    0 # if enabled will classify ptx instruction types per kernel (Max 255 kernels now)
-gpgpu_ptx_sim_mode                     0 # Select between Performance (default) or Functional simulation (1)
-gpgpu_clock_domains 1481.0:2962.0:1481.0:2750.0 # Clock Domain Frequencies in MhZ {<Core Clock>:<ICNT Clock>:<L2 Clock>:<DRAM Clock>}
-gpgpu_max_concurrent_kernel                    8 # maximum kernels that can run concurrently on GPU
-gpgpu_cflog_interval                    0 # Interval between each snapshot in control flow logger
-visualizer_enabled                     0 # Turn on visualizer output (1=On, 0=Off)
-visualizer_outputfile                 NULL # Specifies the output log file for visualizer
-visualizer_zlevel                      6 # Compression level of the visualizer output log (0=no comp, 9=highest)
-trace_enabled                          0 # Turn on traces
-trace_components                    none # comma seperated list of traces to enable. Complete list found in trace_streams.tup. Default none
-trace_sampling_core                    0 # The core which is printed using CORE_DPRINTF. Default 0
-trace_sampling_memory_partition                   -1 # The memory partition which is printed using MEMPART_DPRINTF. Default -1 (i.e. all)
-gddr_size                       3.6364MB # Size of GDDR in MB/GB.(GLOBAL_HEAP_START, GLOBAL_HEAP_START + gddr_size) would be used for unmanged memory, (GLOBAL_HEAP_START + gddr_size, GLOBAL_HEAP_START + gddr_size*2) would be used for managed memory. 
-page_table_walk_latency                  100 # Average page table walk latency (in core cycle).
-eviction_policy                        3 # Select page eviction policy
-reserve_accessed_page_percent                    0 # Percentage of accessed pages reserved from eviction in hope that they will be accessed in next iteration.
-percentage_of_free_page_buffer                    0 # Percentage of free page buffer to trigger the page eviction.
-page_size                            4KB # GDDR page size, only 4KB/2MB avaliable.
-pcie_bandwidth                  16.0GB/s # PCI-e bandwidth per direction, in GB/s.
-enable_nvlink                          0 # Enable nvlink 2.0, 150.0GB/s
-enable_rdma                            0 # Enable remote direct memory access
-migrate_threshold                     10 # Access counter threshold for migrating the page from cpu to gpu
-sim_prof_enable                        1 # Enable gpgpu-sim profiler
-hardware_prefetch                      1 # Select gpgpu-sim hardware prefetcher
-hwprefetch_oversub                     3 # Select gpgpu-sim hardware prefetcher under over-subscription
-page_fault_latency                 66645 # Average fault latency (in core cycle).
-enable_accurate_simulation                    0 # Enable page fault functional simulation.
-enable_ptx_file_line_stats                    1 # Turn on PTX source line statistic profiling. (1 = On)
-ptx_line_stats_filename gpgpu_inst_stats.txt # Output file for PTX source line statistics.
-gpgpu_kernel_launch_latency               222150 # Kernel launch latency in cycles. Default: 0
-gpgpu_cdp_enabled                      0 # Turn on CDP
-save_embedded_ptx                      0 # saves ptx files embedded in binary as <n>.ptx
-keep                                   0 # keep intermediate files created by GPGPU-Sim when interfacing with external programs
-gpgpu_ptx_save_converted_ptxplus                    0 # Saved converted ptxplus to a file
-ptx_opcode_latency_int         4,13,4,5,145 # Opcode latencies for integers <ADD,MAX,MUL,MAD,DIV>Default 1,1,19,25,145
-ptx_opcode_latency_fp          4,13,4,5,39 # Opcode latencies for single precision floating points <ADD,MAX,MUL,MAD,DIV>Default 1,1,1,1,30
-ptx_opcode_latency_dp         8,19,8,8,330 # Opcode latencies for double precision floating points <ADD,MAX,MUL,MAD,DIV>Default 8,8,8,8,335
-ptx_opcode_initiation_int            1,2,2,2,8 # Opcode initiation intervals for integers <ADD,MAX,MUL,MAD,DIV>Default 1,1,4,4,32
-ptx_opcode_initiation_fp            1,2,1,1,4 # Opcode initiation intervals for single precision floating points <ADD,MAX,MUL,MAD,DIV>Default 1,1,1,1,5
-ptx_opcode_initiation_dp          1,2,1,1,130 # Opcode initiation intervals for double precision floating points <ADD,MAX,MUL,MAD,DIV>Default 8,8,8,8,130
-cdp_latency         7200,8000,100,12000,1600 # CDP API latency <cudaStreamCreateWithFlags, cudaGetParameterBufferV2_init_perWarp, cudaGetParameterBufferV2_perKernel, cudaLaunchDeviceV2_init_perWarp, cudaLaunchDevicV2_perKernel>Default 7200,8000,100,12000,1600
DRAM Timing Options:
nbk                                    16 # number of banks
CCD                                     2 # column to column delay
RRD                                     6 # minimal delay between activation of rows in different banks
RCD                                    12 # row to column delay
RAS                                    28 # time needed to activate row
RP                                     12 # time needed to precharge (deactivate) row
RC                                     40 # row cycle time
CDLR                                    5 # switching from write to read (changes tWTR)
WR                                     12 # last data-in to row precharge
CL                                     12 # CAS latency
WL                                      4 # Write latency
nbkgrp                                  1 # number of bank groups
CCDL                                    0 # column to column delay between accesses to different bank groups
RTPL                                    0 # read to precharge delay between accesses to different bank groups
Total number of memory sub partition = 22
addr_dec_mask[CHIP]  = 0000000000000000 	high:64 low:0
addr_dec_mask[BK]    = 0000000000007080 	high:15 low:7
addr_dec_mask[ROW]   = 000000000fff8000 	high:28 low:15
addr_dec_mask[COL]   = 0000000000000f7f 	high:12 low:0
addr_dec_mask[BURST] = 000000000000001f 	high:5 low:0
sub_partition_id_mask = 0000000000000080
GPGPU-Sim uArch: clock freqs: 1481000000.000000:2962000000.000000:1481000000.000000:2750000000.000000
GPGPU-Sim uArch: clock periods: 0.00000000067521944632:0.00000000033760972316:0.00000000067521944632:0.00000000036363636364
*** Initializing Memory Statistics ***
GPGPU-Sim uArch: interconnect node map (shaderID+MemID to icntID)
GPGPU-Sim uArch: Memory nodes ID start from index: 28
GPGPU-Sim uArch:    0   1   2   3   4   5   6
GPGPU-Sim uArch:    7   8   9  10  11  12  13
GPGPU-Sim uArch:   14  15  16  17  18  19  20
GPGPU-Sim uArch:   21  22  23  24  25  26  27
GPGPU-Sim uArch:   28  29  30  31  32  33  34
GPGPU-Sim uArch:   35  36  37  38  39  40  41
GPGPU-Sim uArch:   42  43  44  45  46  47  48
GPGPU-Sim uArch:   49
GPGPU-Sim uArch: interconnect node reverse map (icntID to shaderID+MemID)
GPGPU-Sim uArch: Memory nodes start from ID: 28
GPGPU-Sim uArch:    0   1   2   3   4   5   6
GPGPU-Sim uArch:    7   8   9  10  11  12  13
GPGPU-Sim uArch:   14  15  16  17  18  19  20
GPGPU-Sim uArch:   21  22  23  24  25  26  27
GPGPU-Sim uArch:   28  29  30  31  32  33  34
GPGPU-Sim uArch:   35  36  37  38  39  40  41
GPGPU-Sim uArch:   42  43  44  45  46  47  48
GPGPU-Sim uArch:   49
33a9b438660bbf09feb5655eb5ab1d71  /home/gpuser/Desktop/gpgpu-sim_UVMSmart/benchmarks/Managed/stencil/main
GPGPU-Sim uArch: performance model initialization complete.
GPGPU-Sim PTX: __cudaRegisterFatBinary, fat_cubin_handle = 1, filename=default
self exe links to: /home/gpuser/Desktop/gpgpu-sim_UVMSmart/benchmarks/Managed/stencil/main
Running md5sum using "md5sum /home/gpuser/Desktop/gpgpu-sim_UVMSmart/benchmarks/Managed/stencil/main "
Parsing file _cuobjdump_complete_output_h82f6e
######### cuobjdump parser ########
## Adding new section ELF
Adding arch: sm_20
Adding identifier: default
## Adding new section ELF
Adding arch: sm_20
Adding identifier: default
## Adding new section PTX
Adding ptx filename: _cuobjdump_1.ptx
Adding arch: sm_20
Adding identifier: default
## Adding new section ELF
Adding arch: sm_20
Adding identifier: default
## Adding new section PTX
Adding ptx filename: _cuobjdump_2.ptx
Adding arch: sm_20
Adding identifier: default
Done parsing!!!
GPGPU-Sim PTX: __cudaRegisterFatBinary, fat_cubin_handle = 2, filename=default
GPGPU-Sim PTX: __cudaRegisterFunction _Z24block2D_hybrid_coarsen_xffPfS_iii : hostFun 0x0x401496, fat_cubin_handle = 2
GPGPU-Sim PTX: allocating shared region for "sh_A0" from 0x0 to 0x0 (shared memory space)
GPGPU-Sim PTX: instruction assembly for function '_Z24block2D_hybrid_coarsen_xffPfS_iii'...   done.
GPGPU-Sim PTX: finding reconvergence points for '_Z24block2D_hybrid_coarsen_xffPfS_iii'...
GPGPU-Sim PTX: Finding dominators for '_Z24block2D_hybrid_coarsen_xffPfS_iii'...
GPGPU-Sim PTX: Finding immediate dominators for '_Z24block2D_hybrid_coarsen_xffPfS_iii'...
GPGPU-Sim PTX: Finding postdominators for '_Z24block2D_hybrid_coarsen_xffPfS_iii'...
GPGPU-Sim PTX: Finding immediate postdominators for '_Z24block2D_hybrid_coarsen_xffPfS_iii'...
GPGPU-Sim PTX: pre-decoding instructions for '_Z24block2D_hybrid_coarsen_xffPfS_iii'...
GPGPU-Sim PTX: reconvergence points for _Z24block2D_hybrid_coarsen_xffPfS_iii...
GPGPU-Sim PTX:  1 (potential) branch divergence @  PC=0x170 (_2.ptx:82) @!%p13 bra BB0_2;
GPGPU-Sim PTX:    immediate post dominator      @  PC=0x200 (_2.ptx:104) mov.f32 %f64, %f69;
GPGPU-Sim PTX:  2 (potential) branch divergence @  PC=0x178 (_2.ptx:83) bra.uni BB0_1;
GPGPU-Sim PTX:    immediate post dominator      @  PC=0x180 (_2.ptx:86) mad.lo.s32 %r33, %r3, %r6, %r1;
GPGPU-Sim PTX:  3 (potential) branch divergence @  PC=0x228 (_2.ptx:109) @!%p16 bra BB0_4;
GPGPU-Sim PTX:    immediate post dominator      @  PC=0x2b0 (_2.ptx:130) mov.f32 %f67, %f68;
GPGPU-Sim PTX:  4 (potential) branch divergence @  PC=0x230 (_2.ptx:110) bra.uni BB0_3;
GPGPU-Sim PTX:    immediate post dominator      @  PC=0x238 (_2.ptx:113) mad.lo.s32 %r58, %r3, %r6, %r2;
GPGPU-Sim PTX:  5 (potential) branch divergence @  PC=0x2d0 (_2.ptx:134) @%p17 bra BB0_33;
GPGPU-Sim PTX:    immediate post dominator      @  PC=0x868 (_2.ptx:370) ret;
GPGPU-Sim PTX:  6 (potential) branch divergence @  PC=0x300 (_2.ptx:143) @!%p13 bra BB0_8;
GPGPU-Sim PTX:    immediate post dominator      @  PC=0x348 (_2.ptx:156) @!%p5 bra BB0_19;
GPGPU-Sim PTX:  7 (potential) branch divergence @  PC=0x308 (_2.ptx:144) bra.uni BB0_7;
GPGPU-Sim PTX:    immediate post dominator      @  PC=0x310 (_2.ptx:147) add.s32 %r75, %r273, 1;
GPGPU-Sim PTX:  8 (potential) branch divergence @  PC=0x348 (_2.ptx:156) @!%p5 bra BB0_19;
GPGPU-Sim PTX:    immediate post dominator      @  PC=0x590 (_2.ptx:251) @!%p16 bra BB0_21;
GPGPU-Sim PTX:  9 (potential) branch divergence @  PC=0x350 (_2.ptx:157) bra.uni BB0_9;
GPGPU-Sim PTX:    immediate post dominator      @  PC=0x358 (_2.ptx:160) add.s32 %r89, %r13, -1;
GPGPU-Sim PTX: 10 (potential) branch divergence @  PC=0x368 (_2.ptx:162) @%p21 bra BB0_11;
GPGPU-Sim PTX:    immediate post dominator      @  PC=0x3e8 (_2.ptx:184) setp.eq.s32%p22, %r15, 0;
GPGPU-Sim PTX: 11 (potential) branch divergence @  PC=0x370 (_2.ptx:163) bra.uni BB0_10;
GPGPU-Sim PTX:    immediate post dominator      @  PC=0x3b8 (_2.ptx:176) shl.b32 %r92, %r11, 1;
GPGPU-Sim PTX: 12 (potential) branch divergence @  PC=0x3b0 (_2.ptx:173) bra.uni BB0_12;
GPGPU-Sim PTX:    immediate post dominator      @  PC=0x3e8 (_2.ptx:184) setp.eq.s32%p22, %r15, 0;
GPGPU-Sim PTX: 13 (potential) branch divergence @  PC=0x3f0 (_2.ptx:185) @%p22 bra BB0_14;
GPGPU-Sim PTX:    immediate post dominator      @  PC=0x470 (_2.ptx:207) setp.eq.s32%p23, %r12, 0;
GPGPU-Sim PTX: 14 (potential) branch divergence @  PC=0x3f8 (_2.ptx:186) bra.uni BB0_13;
GPGPU-Sim PTX:    immediate post dominator      @  PC=0x440 (_2.ptx:199) shl.b32 %r111, %r11, 1;
GPGPU-Sim PTX: 15 (potential) branch divergence @  PC=0x438 (_2.ptx:196) bra.uni BB0_15;
GPGPU-Sim PTX:    immediate post dominator      @  PC=0x470 (_2.ptx:207) setp.eq.s32%p23, %r12, 0;
GPGPU-Sim PTX: 16 (potential) branch divergence @  PC=0x478 (_2.ptx:208) @%p23 bra BB0_17;
GPGPU-Sim PTX:    immediate post dominator      @  PC=0x4f0 (_2.ptx:229) mad.lo.s32 %r149, %r273, %r7, %r3;
GPGPU-Sim PTX: 17 (potential) branch divergence @  PC=0x480 (_2.ptx:209) bra.uni BB0_16;
GPGPU-Sim PTX:    immediate post dominator      @  PC=0x4c8 (_2.ptx:222) shl.b32 %r129, %r11, 1;
GPGPU-Sim PTX: 18 (potential) branch divergence @  PC=0x4c0 (_2.ptx:219) bra.uni BB0_18;
GPGPU-Sim PTX:    immediate post dominator      @  PC=0x4f0 (_2.ptx:229) mad.lo.s32 %r149, %r273, %r7, %r3;
GPGPU-Sim PTX: 19 (potential) branch divergence @  PC=0x590 (_2.ptx:251) @!%p16 bra BB0_21;
GPGPU-Sim PTX:    immediate post dominator      @  PC=0x5d8 (_2.ptx:264) @!%p4 bra BB0_32;
GPGPU-Sim PTX: 20 (potential) branch divergence @  PC=0x598 (_2.ptx:252) bra.uni BB0_20;
GPGPU-Sim PTX:    immediate post dominator      @  PC=0x5a0 (_2.ptx:255) add.s32 %r168, %r273, 1;
GPGPU-Sim PTX: 21 (potential) branch divergence @  PC=0x5d8 (_2.ptx:264) @!%p4 bra BB0_32;
GPGPU-Sim PTX:    immediate post dominator      @  PC=0x820 (_2.ptx:359) bar.sync 0;
GPGPU-Sim PTX: 22 (potential) branch divergence @  PC=0x5e0 (_2.ptx:265) bra.uni BB0_22;
GPGPU-Sim PTX:    immediate post dominator      @  PC=0x5e8 (_2.ptx:268) add.s32 %r183, %r13, -1;
GPGPU-Sim PTX: 23 (potential) branch divergence @  PC=0x5f8 (_2.ptx:270) @%p27 bra BB0_24;
GPGPU-Sim PTX:    immediate post dominator      @  PC=0x678 (_2.ptx:292) setp.eq.s32%p28, %r15, 0;
GPGPU-Sim PTX: 24 (potential) branch divergence @  PC=0x600 (_2.ptx:271) bra.uni BB0_23;
GPGPU-Sim PTX:    immediate post dominator      @  PC=0x648 (_2.ptx:284) shl.b32 %r186, %r11, 1;
GPGPU-Sim PTX: 25 (potential) branch divergence @  PC=0x640 (_2.ptx:281) bra.uni BB0_25;
GPGPU-Sim PTX:    immediate post dominator      @  PC=0x678 (_2.ptx:292) setp.eq.s32%p28, %r15, 0;
GPGPU-Sim PTX: 26 (potential) branch divergence @  PC=0x680 (_2.ptx:293) @%p28 bra BB0_27;
GPGPU-Sim PTX:    immediate post dominator      @  PC=0x700 (_2.ptx:315) shl.b32 %r228, %r11, 1;
GPGPU-Sim PTX: 27 (potential) branch divergence @  PC=0x688 (_2.ptx:294) bra.uni BB0_26;
GPGPU-Sim PTX:    immediate post dominator      @  PC=0x6d0 (_2.ptx:307) shl.b32 %r207, %r11, 1;
GPGPU-Sim PTX: 28 (potential) branch divergence @  PC=0x6c8 (_2.ptx:304) bra.uni BB0_28;
GPGPU-Sim PTX:    immediate post dominator      @  PC=0x700 (_2.ptx:315) shl.b32 %r228, %r11, 1;
GPGPU-Sim PTX: 29 (potential) branch divergence @  PC=0x718 (_2.ptx:318) @%p29 bra BB0_30;
GPGPU-Sim PTX:    immediate post dominator      @  PC=0x788 (_2.ptx:338) mad.lo.s32 %r253, %r273, %r7, %r3;
GPGPU-Sim PTX: 30 (potential) branch divergence @  PC=0x720 (_2.ptx:319) bra.uni BB0_29;
GPGPU-Sim PTX:    immediate post dominator      @  PC=0x768 (_2.ptx:332) mad.lo.s32 %r235, %r228, %r15, %r19;
GPGPU-Sim PTX: 31 (potential) branch divergence @  PC=0x760 (_2.ptx:329) bra.uni BB0_31;
GPGPU-Sim PTX:    immediate post dominator      @  PC=0x788 (_2.ptx:338) mad.lo.s32 %r253, %r273, %r7, %r3;
GPGPU-Sim PTX: 32 (potential) branch divergence @  PC=0x860 (_2.ptx:367) @%p30 bra BB0_6;
GPGPU-Sim PTX:    immediate post dominator      @  PC=0x868 (_2.ptx:370) ret;
GPGPU-Sim PTX: ... end of reconvergence points for _Z24block2D_hybrid_coarsen_xffPfS_iii
GPGPU-Sim PTX: ... done pre-decoding instructions for '_Z24block2D_hybrid_coarsen_xffPfS_iii'.
GPGPU-Sim PTX: finished parsing EMBEDDED .ptx file _2.ptx
Adding _cuobjdump_1.ptx with cubin handle 2
GPGPU-Sim PTX: extracting embedded .ptx to temporary file "_ptx_iRMXje"
Running: cat _ptx_iRMXje | sed 's/.version 1.5/.version 1.4/' | sed 's/, texmode_independent//' | sed 's/\(\.extern \.const\[1\] .b8 \w\+\)\[\]/\1\[1\]/' | sed 's/const\[.\]/const\[0\]/g' > _ptx2_nlbJxd
GPGPU-Sim PTX: generating ptxinfo using "$CUDA_INSTALL_PATH/bin/ptxas --gpu-name=sm_20 -v _ptx2_nlbJxd --output-file  /dev/null 2> _ptx_iRMXjeinfo"
GPGPU-Sim PTX: Kernel '_Z24block2D_hybrid_coarsen_xffPfS_iii' : regs=20, lmem=0, smem=0, cmem=68
GPGPU-Sim PTX: removing ptxinfo using "rm -f _ptx_iRMXje _ptx2_nlbJxd _ptx_iRMXjeinfo"
GPGPU-Sim PTX: loading globals with explicit initializers... 
GPGPU-Sim PTX: finished loading globals (0 bytes total).
GPGPU-Sim PTX: loading constants with explicit initializers...  done.
CUDA accelerated 7 points stencil codes****
Original version by Li-Wen Chang <lchang20@illinois.edu> and I-Jui Sung<sung10@illinois.edu>
This version maintained by Chris Rodrigues  ***********

GPGPU-Sim PTX: cudaLaunch for 0x0x401496 (mode=performance simulation) on stream 0
GPGPU-Sim PTX: pushing kernel '_Z24block2D_hybrid_coarsen_xffPfS_iii' to stream 0, gridDim= (2,32,1) blockDim = (32,4,1) 
GPGPU-Sim uArch: Shader 1 bind to kernel 1 '_Z24block2D_hybrid_coarsen_xffPfS_iii'
GPGPU-Sim uArch: CTA/core = 16, limited by: threads
GPGPU-Sim uArch: Shader 2 bind to kernel 1 '_Z24block2D_hybrid_coarsen_xffPfS_iii'
GPGPU-Sim uArch: Shader 3 bind to kernel 1 '_Z24block2D_hybrid_coarsen_xffPfS_iii'
GPGPU-Sim uArch: Shader 4 bind to kernel 1 '_Z24block2D_hybrid_coarsen_xffPfS_iii'
GPGPU-Sim uArch: Shader 5 bind to kernel 1 '_Z24block2D_hybrid_coarsen_xffPfS_iii'
GPGPU-Sim uArch: Shader 6 bind to kernel 1 '_Z24block2D_hybrid_coarsen_xffPfS_iii'
GPGPU-Sim uArch: Shader 7 bind to kernel 1 '_Z24block2D_hybrid_coarsen_xffPfS_iii'
GPGPU-Sim uArch: Shader 8 bind to kernel 1 '_Z24block2D_hybrid_coarsen_xffPfS_iii'
GPGPU-Sim uArch: Shader 9 bind to kernel 1 '_Z24block2D_hybrid_coarsen_xffPfS_iii'
GPGPU-Sim uArch: Shader 10 bind to kernel 1 '_Z24block2D_hybrid_coarsen_xffPfS_iii'
GPGPU-Sim uArch: Shader 11 bind to kernel 1 '_Z24block2D_hybrid_coarsen_xffPfS_iii'
GPGPU-Sim uArch: Shader 12 bind to kernel 1 '_Z24block2D_hybrid_coarsen_xffPfS_iii'
GPGPU-Sim uArch: Shader 13 bind to kernel 1 '_Z24block2D_hybrid_coarsen_xffPfS_iii'
GPGPU-Sim uArch: Shader 14 bind to kernel 1 '_Z24block2D_hybrid_coarsen_xffPfS_iii'
GPGPU-Sim uArch: Shader 15 bind to kernel 1 '_Z24block2D_hybrid_coarsen_xffPfS_iii'
GPGPU-Sim uArch: Shader 16 bind to kernel 1 '_Z24block2D_hybrid_coarsen_xffPfS_iii'
GPGPU-Sim uArch: Shader 17 bind to kernel 1 '_Z24block2D_hybrid_coarsen_xffPfS_iii'
GPGPU-Sim uArch: Shader 18 bind to kernel 1 '_Z24block2D_hybrid_coarsen_xffPfS_iii'
GPGPU-Sim uArch: Shader 19 bind to kernel 1 '_Z24block2D_hybrid_coarsen_xffPfS_iii'
GPGPU-Sim uArch: Shader 20 bind to kernel 1 '_Z24block2D_hybrid_coarsen_xffPfS_iii'
GPGPU-Sim uArch: Shader 21 bind to kernel 1 '_Z24block2D_hybrid_coarsen_xffPfS_iii'
GPGPU-Sim uArch: Shader 22 bind to kernel 1 '_Z24block2D_hybrid_coarsen_xffPfS_iii'
GPGPU-Sim uArch: Shader 23 bind to kernel 1 '_Z24block2D_hybrid_coarsen_xffPfS_iii'
GPGPU-Sim uArch: Shader 24 bind to kernel 1 '_Z24block2D_hybrid_coarsen_xffPfS_iii'
GPGPU-Sim uArch: Shader 25 bind to kernel 1 '_Z24block2D_hybrid_coarsen_xffPfS_iii'
GPGPU-Sim uArch: Shader 26 bind to kernel 1 '_Z24block2D_hybrid_coarsen_xffPfS_iii'
GPGPU-Sim uArch: Shader 27 bind to kernel 1 '_Z24block2D_hybrid_coarsen_xffPfS_iii'
GPGPU-Sim uArch: Shader 0 bind to kernel 1 '_Z24block2D_hybrid_coarsen_xffPfS_iii'
Destroy streams for kernel 1: size 0
kernel_name = _Z24block2D_hybrid_coarsen_xffPfS_iii 
kernel_launch_uid = 1 
gpu_sim_cycle = 766461
gpu_sim_insn = 28848876
gpu_ipc =      37.6391
gpu_tot_sim_cycle = 988611
gpu_tot_sim_insn = 28848876
gpu_tot_ipc =      29.1812
gpu_tot_issued_cta = 64
max_total_param_size = 0
gpu_stall_dramfull = 94665
gpu_stall_icnt2sh    = 2168
partiton_reqs_in_parallel = 16767477
partiton_reqs_in_parallel_total    = 0
partiton_level_parallism =      21.8765
partiton_level_parallism_total  =      16.9606
partiton_reqs_in_parallel_util = 16767477
partiton_reqs_in_parallel_util_total    = 0
gpu_sim_cycle_parition_util = 765486
gpu_tot_sim_cycle_parition_util    = 0
partiton_level_parallism_util =      21.9044
partiton_level_parallism_util_total  =      21.9044
partiton_replys_in_parallel = 47008
partiton_replys_in_parallel_total    = 0
L2_BW  =       5.8132 GB/Sec
L2_BW_total  =       4.5069 GB/Sec
gpu_total_sim_rate=19335

========= Core cache stats =========
L1I_cache:
	L1I_total_cache_accesses = 579228
	L1I_total_cache_misses = 3000
	L1I_total_cache_miss_rate = 0.0052
	L1I_total_cache_pending_hits = 0
	L1I_total_cache_reservation_fails = 0
L1D_cache:
	L1D_cache_core[0]: Access = 0, Miss = 0, Miss_rate = -nan, Pending_hits = 0, Reservation_fails = 0
	L1D_cache_core[1]: Access = 0, Miss = 0, Miss_rate = -nan, Pending_hits = 0, Reservation_fails = 0
	L1D_cache_core[2]: Access = 0, Miss = 0, Miss_rate = -nan, Pending_hits = 0, Reservation_fails = 0
	L1D_cache_core[3]: Access = 0, Miss = 0, Miss_rate = -nan, Pending_hits = 0, Reservation_fails = 0
	L1D_cache_core[4]: Access = 0, Miss = 0, Miss_rate = -nan, Pending_hits = 0, Reservation_fails = 0
	L1D_cache_core[5]: Access = 0, Miss = 0, Miss_rate = -nan, Pending_hits = 0, Reservation_fails = 0
	L1D_cache_core[6]: Access = 0, Miss = 0, Miss_rate = -nan, Pending_hits = 0, Reservation_fails = 0
	L1D_cache_core[7]: Access = 0, Miss = 0, Miss_rate = -nan, Pending_hits = 0, Reservation_fails = 0
	L1D_cache_core[8]: Access = 0, Miss = 0, Miss_rate = -nan, Pending_hits = 0, Reservation_fails = 0
	L1D_cache_core[9]: Access = 0, Miss = 0, Miss_rate = -nan, Pending_hits = 0, Reservation_fails = 0
	L1D_cache_core[10]: Access = 0, Miss = 0, Miss_rate = -nan, Pending_hits = 0, Reservation_fails = 0
	L1D_cache_core[11]: Access = 0, Miss = 0, Miss_rate = -nan, Pending_hits = 0, Reservation_fails = 0
	L1D_cache_core[12]: Access = 0, Miss = 0, Miss_rate = -nan, Pending_hits = 0, Reservation_fails = 0
	L1D_cache_core[13]: Access = 0, Miss = 0, Miss_rate = -nan, Pending_hits = 0, Reservation_fails = 0
	L1D_cache_core[14]: Access = 0, Miss = 0, Miss_rate = -nan, Pending_hits = 0, Reservation_fails = 0
	L1D_cache_core[15]: Access = 0, Miss = 0, Miss_rate = -nan, Pending_hits = 0, Reservation_fails = 0
	L1D_cache_core[16]: Access = 0, Miss = 0, Miss_rate = -nan, Pending_hits = 0, Reservation_fails = 0
	L1D_cache_core[17]: Access = 0, Miss = 0, Miss_rate = -nan, Pending_hits = 0, Reservation_fails = 0
	L1D_cache_core[18]: Access = 0, Miss = 0, Miss_rate = -nan, Pending_hits = 0, Reservation_fails = 0
	L1D_cache_core[19]: Access = 0, Miss = 0, Miss_rate = -nan, Pending_hits = 0, Reservation_fails = 0
	L1D_cache_core[20]: Access = 0, Miss = 0, Miss_rate = -nan, Pending_hits = 0, Reservation_fails = 0
	L1D_cache_core[21]: Access = 0, Miss = 0, Miss_rate = -nan, Pending_hits = 0, Reservation_fails = 0
	L1D_cache_core[22]: Access = 0, Miss = 0, Miss_rate = -nan, Pending_hits = 0, Reservation_fails = 0
	L1D_cache_core[23]: Access = 0, Miss = 0, Miss_rate = -nan, Pending_hits = 0, Reservation_fails = 0
	L1D_cache_core[24]: Access = 0, Miss = 0, Miss_rate = -nan, Pending_hits = 0, Reservation_fails = 0
	L1D_cache_core[25]: Access = 0, Miss = 0, Miss_rate = -nan, Pending_hits = 0, Reservation_fails = 0
	L1D_cache_core[26]: Access = 0, Miss = 0, Miss_rate = -nan, Pending_hits = 0, Reservation_fails = 0
	L1D_cache_core[27]: Access = 0, Miss = 0, Miss_rate = -nan, Pending_hits = 0, Reservation_fails = 0
	L1D_total_cache_accesses = 0
	L1D_total_cache_misses = 0
	L1D_total_cache_pending_hits = 0
	L1D_total_cache_reservation_fails = 0
	L1D_cache_data_port_util = 0.000
	L1D_cache_fill_port_util = 0.000
L1C_cache:
	L1C_total_cache_accesses = 1792
	L1C_total_cache_misses = 1632
	L1C_total_cache_miss_rate = 0.9107
	L1C_total_cache_pending_hits = 0
	L1C_total_cache_reservation_fails = 1444
L1T_cache:
	L1T_total_cache_accesses = 0
	L1T_total_cache_misses = 0
	L1T_total_cache_pending_hits = 0
	L1T_total_cache_reservation_fails = 0

Total_core_cache_stats:
	Total_core_cache_stats_breakdown[GLOBAL_ACC_R][HIT] = 0
	Total_core_cache_stats_breakdown[GLOBAL_ACC_R][HIT_RESERVED] = 0
	Total_core_cache_stats_breakdown[GLOBAL_ACC_R][MISS] = 0
	Total_core_cache_stats_breakdown[GLOBAL_ACC_R][RESERVATION_FAIL] = 0
	Total_core_cache_stats_breakdown[LOCAL_ACC_R][HIT] = 0
	Total_core_cache_stats_breakdown[LOCAL_ACC_R][HIT_RESERVED] = 0
	Total_core_cache_stats_breakdown[LOCAL_ACC_R][MISS] = 0
	Total_core_cache_stats_breakdown[LOCAL_ACC_R][RESERVATION_FAIL] = 0
	Total_core_cache_stats_breakdown[CONST_ACC_R][HIT] = 160
	Total_core_cache_stats_breakdown[CONST_ACC_R][HIT_RESERVED] = 0
	Total_core_cache_stats_breakdown[CONST_ACC_R][MISS] = 1632
	Total_core_cache_stats_breakdown[CONST_ACC_R][RESERVATION_FAIL] = 1444
	Total_core_cache_stats_breakdown[TEXTURE_ACC_R][HIT] = 0
	Total_core_cache_stats_breakdown[TEXTURE_ACC_R][HIT_RESERVED] = 0
	Total_core_cache_stats_breakdown[TEXTURE_ACC_R][MISS] = 0
	Total_core_cache_stats_breakdown[TEXTURE_ACC_R][RESERVATION_FAIL] = 0
	Total_core_cache_stats_breakdown[GLOBAL_ACC_W][HIT] = 0
	Total_core_cache_stats_breakdown[GLOBAL_ACC_W][HIT_RESERVED] = 0
	Total_core_cache_stats_breakdown[GLOBAL_ACC_W][MISS] = 0
	Total_core_cache_stats_breakdown[GLOBAL_ACC_W][RESERVATION_FAIL] = 0
	Total_core_cache_stats_breakdown[LOCAL_ACC_W][HIT] = 0
	Total_core_cache_stats_breakdown[LOCAL_ACC_W][HIT_RESERVED] = 0
	Total_core_cache_stats_breakdown[LOCAL_ACC_W][MISS] = 0
	Total_core_cache_stats_breakdown[LOCAL_ACC_W][RESERVATION_FAIL] = 0
	Total_core_cache_stats_breakdown[L1_WRBK_ACC][HIT] = 0
	Total_core_cache_stats_breakdown[L1_WRBK_ACC][HIT_RESERVED] = 0
	Total_core_cache_stats_breakdown[L1_WRBK_ACC][MISS] = 0
	Total_core_cache_stats_breakdown[L1_WRBK_ACC][RESERVATION_FAIL] = 0
	Total_core_cache_stats_breakdown[L2_WRBK_ACC][HIT] = 0
	Total_core_cache_stats_breakdown[L2_WRBK_ACC][HIT_RESERVED] = 0
	Total_core_cache_stats_breakdown[L2_WRBK_ACC][MISS] = 0
	Total_core_cache_stats_breakdown[L2_WRBK_ACC][RESERVATION_FAIL] = 0
	Total_core_cache_stats_breakdown[INST_ACC_R][HIT] = 576228
	Total_core_cache_stats_breakdown[INST_ACC_R][HIT_RESERVED] = 0
	Total_core_cache_stats_breakdown[INST_ACC_R][MISS] = 3000
	Total_core_cache_stats_breakdown[INST_ACC_R][RESERVATION_FAIL] = 0
	Total_core_cache_stats_breakdown[L1_WR_ALLOC_R][HIT] = 0
	Total_core_cache_stats_breakdown[L1_WR_ALLOC_R][HIT_RESERVED] = 0
	Total_core_cache_stats_breakdown[L1_WR_ALLOC_R][MISS] = 0
	Total_core_cache_stats_breakdown[L1_WR_ALLOC_R][RESERVATION_FAIL] = 0
	Total_core_cache_stats_breakdown[L2_WR_ALLOC_R][HIT] = 0
	Total_core_cache_stats_breakdown[L2_WR_ALLOC_R][HIT_RESERVED] = 0
	Total_core_cache_stats_breakdown[L2_WR_ALLOC_R][MISS] = 0
	Total_core_cache_stats_breakdown[L2_WR_ALLOC_R][RESERVATION_FAIL] = 0
	Total_core_cache_stats_breakdown[CONST_ACC_R][TOTAL_ACCESS] = 1792
	Total_core_cache_stats_breakdown[INST_ACC_R][TOTAL_ACCESS] = 579228
Shader 0 warp_id issue ditsribution:
warp_id:
0, 1, 2, 3, 4, 5, 6, 7, 
distro:
4828, 4640, 4648, 4821, 4828, 4643, 4648, 4818, 
gpgpu_n_tot_thrd_icount = 33319424
gpgpu_n_tot_w_icount = 1041232
gpgpu_n_stall_shd_mem = 191545
gpgpu_n_mem_read_local = 0
gpgpu_n_mem_write_local = 0
gpgpu_n_mem_read_global = 31384
gpgpu_n_mem_write_global = 15120
gpgpu_n_mem_texture = 0
gpgpu_n_mem_const = 28
gpgpu_n_load_insn  = 766208
gpgpu_n_store_insn = 476280
gpgpu_n_shmem_insn = 3155288
gpgpu_n_tex_insn = 0
gpgpu_n_const_mem_insn = 0
gpgpu_n_param_mem_insn = 57344
gpgpu_n_shmem_bkconflict = 0
gpgpu_n_cache_bkconflict = 0
gpgpu_n_intrawarp_mshr_merge = 0
gpgpu_n_cmem_portconflict = 1444
gpgpu_stall_shd_mem[c_mem][bk_conf] = 1444
gpgpu_stall_shd_mem[c_mem][mshr_rc] = 0
gpgpu_stall_shd_mem[c_mem][icnt_rc] = 0
gpgpu_stall_shd_mem[c_mem][data_port_stall] = 0
gpgpu_stall_shd_mem[t_mem][mshr_rc] = 0
gpgpu_stall_shd_mem[t_mem][icnt_rc] = 0
gpgpu_stall_shd_mem[t_mem][data_port_stall] = 0
gpgpu_stall_shd_mem[s_mem][bk_conf] = 0
gpgpu_stall_shd_mem[gl_mem][bk_conf] = 0
gpgpu_stall_shd_mem[gl_mem][coal_stall] = 0
gpgpu_stall_shd_mem[gl_mem][data_port_stall] = 0
gpgpu_stall_shd_mem[g_mem_ld][mshr_rc] = 0
gpgpu_stall_shd_mem[g_mem_ld][icnt_rc] = 190101
gpgpu_stall_shd_mem[g_mem_ld][wb_icnt_rc] = 0
gpgpu_stall_shd_mem[g_mem_ld][wb_rsrv_fail] = 0
gpgpu_stall_shd_mem[g_mem_st][mshr_rc] = 0
gpgpu_stall_shd_mem[g_mem_st][icnt_rc] = 0
gpgpu_stall_shd_mem[g_mem_st][wb_icnt_rc] = 0
gpgpu_stall_shd_mem[g_mem_st][wb_rsrv_fail] = 0
gpgpu_stall_shd_mem[l_mem_ld][mshr_rc] = 0
gpgpu_stall_shd_mem[l_mem_ld][icnt_rc] = 0
gpgpu_stall_shd_mem[l_mem_ld][wb_icnt_rc] = 0
gpgpu_stall_shd_mem[l_mem_ld][wb_rsrv_fail] = 0
gpgpu_stall_shd_mem[l_mem_st][mshr_rc] = 0
gpgpu_stall_shd_mem[l_mem_st][icnt_rc] = 0
gpgpu_stall_shd_mem[l_mem_ld][wb_icnt_rc] = 0
gpgpu_stall_shd_mem[l_mem_ld][wb_rsrv_fail] = 0
gpu_reg_bank_conflict_stalls = 0
Warp Occupancy Distribution:
Stall:31270	W0_Idle:19582249	W0_Scoreboard:22402283	W1:60480	W2:0	W3:0	W4:0	W5:0	W6:0	W7:0	W8:0	W9:0	W10:0	W11:0	W12:0	W13:0	W14:0	W15:0	W16:0	W17:0	W18:0	W19:0	W20:0	W21:0	W22:0	W23:0	W24:0	W25:0	W26:0	W27:0	W28:0	W29:0	W30:0	W31:408180	W32:572572
traffic_breakdown_coretomem[CONST_ACC_R] = 224 {8:28,}
traffic_breakdown_coretomem[GLOBAL_ACC_R] = 251072 {8:31384,}
traffic_breakdown_coretomem[GLOBAL_ACC_W] = 2056320 {136:15120,}
traffic_breakdown_coretomem[INST_ACC_R] = 3808 {8:476,}
traffic_breakdown_memtocore[CONST_ACC_R] = 2016 {72:28,}
traffic_breakdown_memtocore[GLOBAL_ACC_R] = 3542464 {40:7560,136:23824,}
traffic_breakdown_memtocore[GLOBAL_ACC_W] = 120960 {8:15120,}
traffic_breakdown_memtocore[INST_ACC_R] = 64736 {136:476,}
maxmrqlatency = 1872 
maxdqlatency = 0 
maxmflatency = 360977 
averagemflatency = 63634 
max_icnt2mem_latency = 359847 
max_icnt2sh_latency = 988610 
mrq_lat_table:14549 	1219 	742 	1307 	1693 	2437 	3688 	6571 	10609 	3772 	55 	0 	0 	0 	0 	0 	0 	0 	0 	0 	0 	0 	0 	0 	0 	0 	0 	0 	0 	0 	0 	0 	
dq_lat_table:0 	0 	0 	0 	0 	0 	0 	0 	0 	0 	0 	0 	0 	0 	0 	0 	0 	0 	0 	0 	0 	0 	0 	0 	0 	0 	0 	0 	0 	0 	0 	0 	
mf_lat_table:0 	0 	0 	0 	0 	0 	0 	22039 	8481 	250 	0 	58 	146 	826 	1386 	5310 	262 	242 	7532 	0 	0 	0 	0 	0 	0 	0 	0 	0 	0 	0 	0 	0 	
icnt2mem_lat_table:0 	0 	22134 	129 	19 	0 	8964 	0 	0 	0 	1 	57 	146 	826 	1386 	5310 	262 	242 	7532 	0 	0 	0 	0 	0 	
icnt2sh_lat_table:0 	0 	25449 	5840 	123 	0 	0 	0 	0 	0 	0 	0 	0 	0 	0 	0 	0 	0 	7084 	8036 	0 	0 	0 	0 	
mf_lat_pw_table:0 	0 	0 	0 	0 	0 	0 	86 	9 	0 	0 	2 	3 	6 	9 	14 	1 	1 	13 	0 	0 	0 	0 	0 	0 	0 	0 	0 	0 	0 	0 	0 	
maximum concurrent accesses to same row:
dram[0]:        32        32        32        32        32        32        32        32        32        32        32        32        32        32        32        32 
dram[1]:        32        32        32        32        32        32        32        32        32        32        32        32        32        32        32        32 
dram[2]:        32        32        32        32        32        32        32        32        32        32        32        32        32        32        32        32 
dram[3]:        32        32        32        32        32        32        32        32        32        32        32        32        32        32        32        32 
dram[4]:        32        32        32        32        32        32        32        32        32        32        32        32        32        32        32        32 
dram[5]:        32        32        32        32        32        32        32        32        32        32        32        32        32        32        32        32 
dram[6]:        32        32        32        32        32        32        32        32        32        32        32        32        32        32        32        32 
dram[7]:        32        32        32        32        32        32        32        32        32        32        32        32        32        32        32        32 
dram[8]:        32        32        32        32        32        32        32        32        32        32        32        32        32        32        32        32 
dram[9]:        32        32        32        32        32        32        32        32        32        32        32        32        32        32        32        32 
dram[10]:        32        32        32        32        32        32        32        32        32        32        32        32        32        32        32        32 
maximum service time to same row:
dram[0]:    346124    345693    343471    342883    349701    349124    348833    348265    347920    347472    347860    347361    346889    346443    346205    345781 
dram[1]:    346088    345670    343525    342962    349724    349130    348810    348323    348051    347516    347838    347285    346851    346348    346214    345693 
dram[2]:    346091    345529    343490    342908    349695    349112    348827    348279    347961    347468    347816    347401    346948    346966    346100    345696 
dram[3]:    346110    345618    343531    342940    349719    349143    348816    348317    348062    347510    347820    347298    346949    346353    346253    345752 
dram[4]:    346108    345629    343490    342910    349719    349668    348878    348334    347980    347487    347787    347281    346955    346470    346178    345698 
dram[5]:    346131    346116    343475    342912    349701    349130    348796    348226    348062    347516    347871    347348    346893    346381    346366    345841 
dram[6]:    345972    345475    343488    342905    349698    349135    348687    348161    348029    347566    347841    347346    346984    346544    346115    345759 
dram[7]:    346116    345690    343479    342902    349708    349149    348815    348489    347938    347477    347945    347465    346954    346475    346270    345788 
dram[8]:    345933    345440    343529    342968    349699    349116    348566    348101    348001    347469    347799    347248    347030    346498    346239    345783 
dram[9]:    346087    345685    343480    342895    349719    349153    348837    348357    348011    347516    347965    347393    346977    346510    346366    345854 
dram[10]:    345439    344888    343527    342965    349710    349141    348638    348116    348063    347531    347828    347835    346996    346411    346286    345742 
average row accesses per activate:
dram[0]: 23.363636 23.272728 20.500000 20.500000 21.818182 21.818182 19.500000 19.500000 21.692308 20.142857 20.571428 22.153847 17.375000 19.857143 21.416666 21.416666 
dram[1]: 23.272728 23.272728 20.500000 20.500000 21.272728 21.272728 23.250000 23.250000 18.799999 18.799999 22.153847 22.153847 17.375000 17.375000 21.416666 23.272728 
dram[2]: 22.909090 22.909090 21.000000 21.000000 21.272728 21.272728 19.928572 19.928572 20.142857 20.142857 22.153847 22.153847 17.375000 17.375000 23.272728 23.272728 
dram[3]: 19.384615 22.909090 21.000000 21.000000 21.272728 21.272728 23.250000 23.250000 20.142857 20.142857 19.200001 16.941177 18.400000 18.400000 23.272728 23.272728 
dram[4]: 22.909090 22.909090 21.000000 21.000000 21.272728 21.272728 22.750000 22.750000 24.000000 24.000000 20.571428 22.153847 17.250000 17.250000 21.416666 21.416666 
dram[5]: 19.384615 19.384615 20.666666 20.666666 21.818182 21.818182 22.750000 22.750000 24.000000 24.000000 19.200001 19.200001 19.714285 19.714285 21.416666 21.416666 
dram[6]: 23.272728 23.272728 20.666666 20.666666 21.818182 21.818182 22.750000 22.750000 24.000000 24.000000 22.153847 22.153847 17.250000 17.250000 20.916666 20.916666 
dram[7]: 23.272728 23.272728 20.583334 20.583334 21.818182 21.818182 22.750000 22.750000 22.153847 22.153847 18.799999 18.799999 18.799999 20.142857 20.916666 20.916666 
dram[8]: 23.272728 23.272728 20.583334 20.583334 21.818182 21.818182 22.916666 22.916666 22.153847 22.153847 21.692308 21.692308 17.625000 17.625000 20.916666 20.916666 
dram[9]: 22.727272 22.727272 20.916666 20.916666 21.818182 21.818182 22.916666 22.916666 24.000000 24.000000 18.799999 16.588236 20.142857 20.142857 20.916666 20.916666 
dram[10]: 22.727272 22.727272 20.916666 20.916666 21.818182 21.818182 23.000000 23.000000 24.000000 24.000000 20.142857 21.692308 15.333333 17.250000 21.416666 21.416666 
average row locality = 46642/2218 = 21.028854
number of total memory accesses made:
dram[0]:         0         0         0         0         0         0         0         0         0         0         0         0         0         0         0         0 
dram[1]:         0         0         0         0         0         0         0         0         0         0         0         0         0         0         0         0 
dram[2]:         0         0         0         0         0         0         0         0         0         0         0         0         0         0         0         0 
dram[3]:         0         0         0         0         0         0         0         0         0         0         0         0         0         0         0         0 
dram[4]:         0         0         0         0         0         0         0         0         0         0         0         0         0         0         0         0 
dram[5]:         0         0         0         0         0         0         0         0         0         0         0         0         0         0         0         0 
dram[6]:         0         0         0         0         0         0         0         0         0         0         0         0         0         0         0         0 
dram[7]:         0         0         0         0         0         0         0         0         0         0         0         0         0         0         0         0 
dram[8]:         0         0         0         0         0         0         0         0         0         0         0         0         0         0         0         0 
dram[9]:         0         0         0         0         0         0         0         0         0         0         0         0         0         0         0         0 
dram[10]:         0         0         0         0         0         0         0         0         0         0         0         0         0         0         0         0 
total accesses: 0
min_bank_accesses = 0!
min_chip_accesses = 0!
number of total read accesses:
dram[0]:       177       176       169       169       160       160       183       183       189       189       192       192       187       187       177       177 
dram[1]:       176       176       169       169       157       157       186       186       189       189       192       192       187       187       177       176 
dram[2]:       174       174       172       172       157       157       186       186       189       189       192       192       187       187       176       176 
dram[3]:       174       174       172       172       157       157       186       186       189       189       192       192       186       186       176       176 
dram[4]:       174       174       172       172       157       157       183       183       192       192       192       192       186       186       177       177 
dram[5]:       174       174       170       170       160       160       183       183       192       192       192       192       186       186       177       177 
dram[6]:       176       176       170       170       160       160       183       183       192       192       192       192       186       186       174       174 
dram[7]:       176       176       169       169       160       160       183       183       192       192       189       189       189       189       174       174 
dram[8]:       176       176       169       169       160       160       184       184       192       192       189       189       189       189       174       174 
dram[9]:       173       173       171       171       160       160       184       184       192       192       189       189       189       189       174       174 
dram[10]:       173       173       171       171       160       160       185       185       192       192       189       189       186       186       177       177 
total reads: 31522
bank skew: 192/157 = 1.22
chip skew: 2868/2864 = 1.00
number of total write accesses:
dram[0]:        80        80        77        77        80        80        90        90        93        93        96        96        91        91        80        80 
dram[1]:        80        80        77        77        77        77        93        93        93        93        96        96        91        91        80        80 
dram[2]:        78        78        80        80        77        77        93        93        93        93        96        96        91        91        80        80 
dram[3]:        78        78        80        80        77        77        93        93        93        93        96        96        90        90        80        80 
dram[4]:        78        78        80        80        77        77        90        90        96        96        96        96        90        90        80        80 
dram[5]:        78        78        78        78        80        80        90        90        96        96        96        96        90        90        80        80 
dram[6]:        80        80        78        78        80        80        90        90        96        96        96        96        90        90        77        77 
dram[7]:        80        80        78        78        80        80        90        90        96        96        93        93        93        93        77        77 
dram[8]:        80        80        78        78        80        80        91        91        96        96        93        93        93        93        77        77 
dram[9]:        77        77        80        80        80        80        91        91        96        96        93        93        93        93        77        77 
dram[10]:        77        77        80        80        80        80        91        91        96        96        93        93        90        90        80        80 
total reads: 15120
bank skew: 96/77 = 1.25
chip skew: 1376/1374 = 1.00
average mf latency per bank:
dram[0]:      53845     51464     75505     72300     85970     78490     78283     67595     63712     62868     66281     65081     65652     63873     59845     51978
dram[1]:      54022     51455     75488     72281     84900     77456     78228     67737     63717     62872     66276     65069     65852     64065     59832     52161
dram[2]:      53205     51041     75352     72101     84895     77456     78177     67687     63737     62873     66293     65096     65845     64062     60174     52271
dram[3]:      53206     51043     75334     72116     85050     77622     78231     67731     63734     62873     66466     65249     66308     64306     60186     52280
dram[4]:      53001     50834     75353     72134     85040     77607     77113     67044     63900     63049     66514     65274     66392     64291     59961     52080
dram[5]:      52991     50820     76523     73005     86140     78511     77148     67074     63921     63052     66493     65253     66361     64338     59970     52095
dram[6]:      53838     51474     76510     73010     86114     78495     76925     66875     63906     63052     66528     65291     66720     64319     59675     51682
dram[7]:      53824     51454     76703     73303     86140     78513     76916     66875     63897     63066     65382     64127     66906     64553     59608     51680
dram[8]:      53833     51463     76708     73288     86961     78476     77442     67016     63913     63064     65422     64159     66683     64524     59601     51663
dram[9]:      53238     51062     77164     73813     86997     78496     77388     66967     63927     63083     65390     64135     66703     64543     59608     51670
dram[10]:      53252     51053     77161     73795     86469     78467     77143     66738     63926     63075     65409     64153     65248     63044     59671     51861
maximum mf latency per bank:
dram[0]:     358243    358007    360655    360263    360700    360204    359856    359594    359368    359104    359548    359091    358231    357997    358040    357861
dram[1]:     357669    357447    360650    360274    360663    360346    359918    359542    359172    358875    359256    358794    358751    358371    357861    357443
dram[2]:     358181    357826    360675    360305    360684    360091    359983    359525    359338    359050    359598    359372    358139    357984    357878    357700
dram[3]:     357534    357122    360636    360252    360791    360397    359866    359484    359350    358957    359213    358740    358798    358431    357822    357405
dram[4]:     358210    357821    360670    360278    360639    359977    359940    359666    359389    359029    359475    359118    358377    358010    357948    357643
dram[5]:     357640    357268    360666    360340    360884    360320    359736    359386    359398    359008    359082    358700    358859    358619    358174    357846
dram[6]:     358400    358038    360719    360350    360474    359979    360106    359732    359332    359091    359518    359104    358307    358278    357783    357615
dram[7]:     357690    357484    360636    360246    360977    360317    359749    359393    359198    358923    359518    359162    358554    358225    357905    357678
dram[8]:     357961    357487    360782    360385    360443    360034    360157    359763    359225    358730    359269    358658    358767    358381    358027    357683
dram[9]:     357661    357390    360715    360283    360907    360390    359843    359604    359397    359141    359583    359121    358519    358099    358181    357689
dram[10]:     357815    357226    360741    360378    360476    359811    360085    359671    359291    358913    359329    358728    358814    358318    358111    357578
Memory Partition 0: 
Cache L2_bank_000:
MSHR contents

Cache L2_bank_001:
MSHR contents

In Dram Latency Queue (total = 0): 
DRAM[0]: 16 bks, busW=4 BL=8 CL=12, tRRD=2 tCCD=6, tRCD=12 tRAS=28 tRP=12 tRC=40
n_cmd=1423204 n_nop=1405846 n_act=205 n_pre=189 n_req=4241 n_rd=11468 n_write=5496 bw_util=0.02384
n_activity=48664 dram_eff=0.6972
bk0: 708a 1409045i bk1: 704a 1409199i bk2: 676a 1408901i bk3: 676a 1408401i bk4: 640a 1407357i bk5: 640a 1407593i bk6: 732a 1407276i bk7: 732a 1407000i bk8: 756a 1407756i bk9: 756a 1408392i bk10: 768a 1407199i bk11: 768a 1407238i bk12: 748a 1408200i bk13: 748a 1407661i bk14: 708a 1409279i bk15: 708a 1409028i 
dram_util_bins: 0 0 0 0 0 0 0 0 0 0
dram_eff_bins: 0 0 0 0 0 0 0 0 0 0
mrqq: max=64 avg=0.957135
Memory Partition 1: 
Cache L2_bank_002:
MSHR contents

Cache L2_bank_003:
MSHR contents

In Dram Latency Queue (total = 0): 
DRAM[1]: 16 bks, busW=4 BL=8 CL=12, tRRD=2 tCCD=6, tRCD=12 tRAS=28 tRP=12 tRC=40
n_cmd=1423204 n_nop=1405858 n_act=203 n_pre=187 n_req=4239 n_rd=11460 n_write=5496 bw_util=0.02383
n_activity=48683 dram_eff=0.6966
bk0: 704a 1409801i bk1: 704a 1409309i bk2: 676a 1408564i bk3: 676a 1408451i bk4: 628a 1408507i bk5: 628a 1408515i bk6: 744a 1407060i bk7: 744a 1407133i bk8: 756a 1407205i bk9: 756a 1407469i bk10: 768a 1407430i bk11: 768a 1407271i bk12: 748a 1407428i bk13: 748a 1407617i bk14: 708a 1409437i bk15: 704a 1409527i 
dram_util_bins: 0 0 0 0 0 0 0 0 0 0
dram_eff_bins: 0 0 0 0 0 0 0 0 0 0
mrqq: max=64 avg=0.960879
Memory Partition 2: 
Cache L2_bank_004:
MSHR contents

Cache L2_bank_005:
MSHR contents

In Dram Latency Queue (total = 0): 
DRAM[2]: 16 bks, busW=4 BL=8 CL=12, tRRD=2 tCCD=6, tRCD=12 tRAS=28 tRP=12 tRC=40
n_cmd=1423204 n_nop=1405844 n_act=204 n_pre=188 n_req=4242 n_rd=11464 n_write=5504 bw_util=0.02384
n_activity=48738 dram_eff=0.6963
bk0: 696a 1409394i bk1: 696a 1409229i bk2: 688a 1407436i bk3: 688a 1407842i bk4: 628a 1407967i bk5: 628a 1408013i bk6: 744a 1406707i bk7: 744a 1407117i bk8: 756a 1408227i bk9: 756a 1408117i bk10: 768a 1407244i bk11: 768a 1407099i bk12: 748a 1407551i bk13: 748a 1407340i bk14: 704a 1409918i bk15: 704a 1409431i 
dram_util_bins: 0 0 0 0 0 0 0 0 0 0
dram_eff_bins: 0 0 0 0 0 0 0 0 0 0
mrqq: max=64 avg=0.961953
Memory Partition 3: 
Cache L2_bank_006:
MSHR contents

Cache L2_bank_007:
MSHR contents

In Dram Latency Queue (total = 0): 
DRAM[3]: 16 bks, busW=4 BL=8 CL=12, tRRD=2 tCCD=6, tRCD=12 tRAS=28 tRP=12 tRC=40
n_cmd=1423204 n_nop=1405856 n_act=206 n_pre=190 n_req=4238 n_rd=11456 n_write=5496 bw_util=0.02382
n_activity=48669 dram_eff=0.6966
bk0: 696a 1409674i bk1: 696a 1409550i bk2: 688a 1408161i bk3: 688a 1407910i bk4: 628a 1408201i bk5: 628a 1408041i bk6: 744a 1407120i bk7: 744a 1407107i bk8: 756a 1407870i bk9: 756a 1407918i bk10: 768a 1407109i bk11: 768a 1407301i bk12: 744a 1408035i bk13: 744a 1408034i bk14: 704a 1409290i bk15: 704a 1409335i 
dram_util_bins: 0 0 0 0 0 0 0 0 0 0
dram_eff_bins: 0 0 0 0 0 0 0 0 0 0
mrqq: max=64 avg=0.965571
Memory Partition 4: 
Cache L2_bank_008:
MSHR contents

Cache L2_bank_009:
MSHR contents

In Dram Latency Queue (total = 0): 
DRAM[4]: 16 bks, busW=4 BL=8 CL=12, tRRD=2 tCCD=6, tRCD=12 tRAS=28 tRP=12 tRC=40
n_cmd=1423204 n_nop=1405862 n_act=199 n_pre=183 n_req=4240 n_rd=11464 n_write=5496 bw_util=0.02383
n_activity=48432 dram_eff=0.7004
bk0: 696a 1409894i bk1: 696a 1409454i bk2: 688a 1408075i bk3: 688a 1407731i bk4: 628a 1408558i bk5: 628a 1408468i bk6: 732a 1407468i bk7: 732a 1407438i bk8: 768a 1407542i bk9: 768a 1407650i bk10: 768a 1407614i bk11: 768a 1407659i bk12: 744a 1407692i bk13: 744a 1408043i bk14: 708a 1408871i bk15: 708a 1409463i 
dram_util_bins: 0 0 0 0 0 0 0 0 0 0
dram_eff_bins: 0 0 0 0 0 0 0 0 0 0
mrqq: max=64 avg=0.960723
Memory Partition 5: 
Cache L2_bank_010:
MSHR contents

Cache L2_bank_011:
MSHR contents
MSHR: tag=0x8078b080, atomic=0 1 entries : 0x7fb21bfc0070 :  mf: uid=644072, sid05:w04, part=5, addr=0x8078b080, load , size=128, unknown  status = IN_PARTITION_DRAM (988610), 

In Dram Latency Queue (total = 0): 
DRAM[5]: 16 bks, busW=4 BL=8 CL=12, tRRD=2 tCCD=6, tRCD=12 tRAS=28 tRP=12 tRC=40
n_cmd=1423204 n_nop=1405841 n_act=202 n_pre=186 n_req=4244 n_rd=11471 n_write=5504 bw_util=0.02385
n_activity=48822 dram_eff=0.6954
bk0: 696a 1410029i bk1: 696a 1409910i bk2: 680a 1408636i bk3: 680a 1408680i bk4: 640a 1407602i bk5: 640a 1407704i bk6: 732a 1407433i bk7: 732a 1407283i bk8: 768a 1407066i bk9: 768a 1407271i bk10: 768a 1407075i bk11: 768a 1406768i bk12: 744a 1407517i bk13: 743a 1407539i bk14: 708a 1409265i bk15: 708a 1408973i 
dram_util_bins: 0 0 0 0 0 0 0 0 0 0
dram_eff_bins: 0 0 0 0 0 0 0 0 0 0
mrqq: max=64 avg=0.963369
Memory Partition 6: 
Cache L2_bank_012:
MSHR contents
MSHR: tag=0x80782200, atomic=0 1 entries : 0x7fb219b3c7e0 :  mf: uid=643992, sid05:w09, part=6, addr=0x80782200, load , size=128, unknown  status = IN_PARTITION_DRAM (988605), 
MSHR: tag=0x80791f00, atomic=0 1 entries : 0x7fb21bf759e0 :  mf: uid=643978, sid04:w11, part=6, addr=0x80791f00, load , size=128, unknown  status = IN_PARTITION_DRAM (988610), 

Cache L2_bank_013:
MSHR contents
MSHR: tag=0x80782280, atomic=0 1 entries : 0x7fb219a0f990 :  mf: uid=644081, sid05:w09, part=6, addr=0x80782280, load , size=128, unknown  status = IN_PARTITION_DRAM (988609), 
MSHR: tag=0x80791f80, atomic=0 1 entries : 0x7fb21bfdfd10 :  mf: uid=644077, sid04:w11, part=6, addr=0x80791f80, load , size=128, unknown  status = IN_PARTITION_DRAM (988610), 

In Dram Latency Queue (total = 0): 
DRAM[6]: 16 bks, busW=4 BL=8 CL=12, tRRD=2 tCCD=6, tRCD=12 tRAS=28 tRP=12 tRC=40
n_cmd=1423204 n_nop=1405872 n_act=198 n_pre=182 n_req=4240 n_rd=11456 n_write=5496 bw_util=0.02382
n_activity=48562 dram_eff=0.6982
bk0: 704a 1409325i bk1: 704a 1409111i bk2: 680a 1408583i bk3: 680a 1408667i bk4: 640a 1407844i bk5: 640a 1407891i bk6: 732a 1407519i bk7: 732a 1407501i bk8: 768a 1407321i bk9: 768a 1407529i bk10: 768a 1407473i bk11: 768a 1407617i bk12: 740a 1407728i bk13: 740a 1407737i bk14: 696a 1410078i bk15: 696a 1410171i 
dram_util_bins: 0 0 0 0 0 0 0 0 0 0
dram_eff_bins: 0 0 0 0 0 0 0 0 0 0
mrqq: max=64 avg=0.964973
Memory Partition 7: 
Cache L2_bank_014:
MSHR contents

Cache L2_bank_015:
MSHR contents

In Dram Latency Queue (total = 0): 
DRAM[7]: 16 bks, busW=4 BL=8 CL=12, tRRD=2 tCCD=6, tRCD=12 tRAS=28 tRP=12 tRC=40
n_cmd=1423204 n_nop=1405866 n_act=201 n_pre=185 n_req=4238 n_rd=11456 n_write=5496 bw_util=0.02382
n_activity=48832 dram_eff=0.6943
bk0: 704a 1409220i bk1: 704a 1409251i bk2: 676a 1409263i bk3: 676a 1408729i bk4: 640a 1407540i bk5: 640a 1407744i bk6: 732a 1407315i bk7: 732a 1407236i bk8: 768a 1407347i bk9: 768a 1407371i bk10: 756a 1407472i bk11: 756a 1408287i bk12: 756a 1407649i bk13: 756a 1407404i bk14: 696a 1410203i bk15: 696a 1409743i 
dram_util_bins: 0 0 0 0 0 0 0 0 0 0
dram_eff_bins: 0 0 0 0 0 0 0 0 0 0
mrqq: max=64 avg=0.961391
Memory Partition 8: 
Cache L2_bank_016:
MSHR contents

Cache L2_bank_017:
MSHR contents

In Dram Latency Queue (total = 0): 
DRAM[8]: 16 bks, busW=4 BL=8 CL=12, tRRD=2 tCCD=6, tRCD=12 tRAS=28 tRP=12 tRC=40
n_cmd=1423204 n_nop=1405852 n_act=200 n_pre=184 n_req=4242 n_rd=11464 n_write=5504 bw_util=0.02384
n_activity=48553 dram_eff=0.6989
bk0: 704a 1409660i bk1: 704a 1409368i bk2: 676a 1408647i bk3: 676a 1408922i bk4: 640a 1407845i bk5: 640a 1408013i bk6: 736a 1407402i bk7: 736a 1407388i bk8: 768a 1407369i bk9: 768a 1407552i bk10: 756a 1407547i bk11: 756a 1407959i bk12: 756a 1407166i bk13: 756a 1407511i bk14: 696a 1409767i bk15: 696a 1410499i 
dram_util_bins: 0 0 0 0 0 0 0 0 0 0
dram_eff_bins: 0 0 0 0 0 0 0 0 0 0
mrqq: max=64 avg=0.96459
Memory Partition 9: 
Cache L2_bank_018:
MSHR contents

Cache L2_bank_019:
MSHR contents
MSHR: tag=0x80792280, atomic=0 1 entries : 0x7fb21b430e40 :  mf: uid=644084, sid05:w09, part=9, addr=0x80792280, load , size=128, unknown  status = IN_PARTITION_DRAM (988610), 

In Dram Latency Queue (total = 0): 
DRAM[9]: 16 bks, busW=4 BL=8 CL=12, tRRD=2 tCCD=6, tRCD=12 tRAS=28 tRP=12 tRC=40
n_cmd=1423204 n_nop=1405868 n_act=200 n_pre=184 n_req=4238 n_rd=11456 n_write=5496 bw_util=0.02382
n_activity=48416 dram_eff=0.7003
bk0: 692a 1409415i bk1: 692a 1409624i bk2: 684a 1408465i bk3: 684a 1408125i bk4: 640a 1407512i bk5: 640a 1407798i bk6: 736a 1407310i bk7: 736a 1407664i bk8: 768a 1407423i bk9: 768a 1407722i bk10: 756a 1407412i bk11: 756a 1407732i bk12: 756a 1406568i bk13: 756a 1407082i bk14: 696a 1409854i bk15: 696a 1409728i 
dram_util_bins: 0 0 0 0 0 0 0 0 0 0
dram_eff_bins: 0 0 0 0 0 0 0 0 0 0
mrqq: max=64 avg=0.962563
Memory Partition 10: 
Cache L2_bank_020:
MSHR contents

Cache L2_bank_021:
MSHR contents

In Dram Latency Queue (total = 0): 
DRAM[10]: 16 bks, busW=4 BL=8 CL=12, tRRD=2 tCCD=6, tRCD=12 tRAS=28 tRP=12 tRC=40
n_cmd=1423204 n_nop=1405858 n_act=201 n_pre=185 n_req=4240 n_rd=11464 n_write=5496 bw_util=0.02383
n_activity=48852 dram_eff=0.6943
bk0: 692a 1409544i bk1: 692a 1410198i bk2: 684a 1408008i bk3: 684a 1407994i bk4: 640a 1407786i bk5: 640a 1407797i bk6: 740a 1407600i bk7: 740a 1407361i bk8: 768a 1406931i bk9: 768a 1407596i bk10: 756a 1407753i bk11: 756a 1407670i bk12: 744a 1407661i bk13: 744a 1408586i bk14: 708a 1409795i bk15: 708a 1409674i 
dram_util_bins: 0 0 0 0 0 0 0 0 0 0
dram_eff_bins: 0 0 0 0 0 0 0 0 0 0
mrqq: max=64 avg=0.959136

========= L2 cache stats =========
L2_cache_bank[0]: Access = 2171, Miss = 1434, Miss_rate = 0.661, Pending_hits = 34, Reservation_fails = 0
L2_cache_bank[1]: Access = 2143, Miss = 1433, Miss_rate = 0.669, Pending_hits = 111, Reservation_fails = 0
L2_cache_bank[2]: Access = 2141, Miss = 1433, Miss_rate = 0.669, Pending_hits = 1, Reservation_fails = 0
L2_cache_bank[3]: Access = 2112, Miss = 1432, Miss_rate = 0.678, Pending_hits = 101, Reservation_fails = 0
L2_cache_bank[4]: Access = 2114, Miss = 1433, Miss_rate = 0.678, Pending_hits = 0, Reservation_fails = 0
L2_cache_bank[5]: Access = 2115, Miss = 1433, Miss_rate = 0.678, Pending_hits = 108, Reservation_fails = 0
L2_cache_bank[6]: Access = 2114, Miss = 1432, Miss_rate = 0.677, Pending_hits = 0, Reservation_fails = 0
L2_cache_bank[7]: Access = 2113, Miss = 1432, Miss_rate = 0.678, Pending_hits = 102, Reservation_fails = 0
L2_cache_bank[8]: Access = 2140, Miss = 1433, Miss_rate = 0.670, Pending_hits = 29, Reservation_fails = 0
L2_cache_bank[9]: Access = 2141, Miss = 1433, Miss_rate = 0.669, Pending_hits = 135, Reservation_fails = 0
L2_cache_bank[10]: Access = 2144, Miss = 1434, Miss_rate = 0.669, Pending_hits = 30, Reservation_fails = 0
L2_cache_bank[11]: Access = 2144, Miss = 1434, Miss_rate = 0.669, Pending_hits = 128, Reservation_fails = 0
L2_cache_bank[12]: Access = 2142, Miss = 1433, Miss_rate = 0.669, Pending_hits = 29, Reservation_fails = 0
L2_cache_bank[13]: Access = 2141, Miss = 1433, Miss_rate = 0.669, Pending_hits = 133, Reservation_fails = 0
L2_cache_bank[14]: Access = 2140, Miss = 1432, Miss_rate = 0.669, Pending_hits = 28, Reservation_fails = 0
L2_cache_bank[15]: Access = 2141, Miss = 1432, Miss_rate = 0.669, Pending_hits = 133, Reservation_fails = 0
L2_cache_bank[16]: Access = 2144, Miss = 1433, Miss_rate = 0.668, Pending_hits = 28, Reservation_fails = 0
L2_cache_bank[17]: Access = 2144, Miss = 1433, Miss_rate = 0.668, Pending_hits = 134, Reservation_fails = 0
L2_cache_bank[18]: Access = 2141, Miss = 1432, Miss_rate = 0.669, Pending_hits = 8, Reservation_fails = 0
L2_cache_bank[19]: Access = 2140, Miss = 1432, Miss_rate = 0.669, Pending_hits = 106, Reservation_fails = 0
L2_cache_bank[20]: Access = 2141, Miss = 1433, Miss_rate = 0.669, Pending_hits = 3, Reservation_fails = 0
L2_cache_bank[21]: Access = 2142, Miss = 1433, Miss_rate = 0.669, Pending_hits = 113, Reservation_fails = 0
L2_total_cache_accesses = 47008
L2_total_cache_misses = 31522
L2_total_cache_miss_rate = 0.6706
L2_total_cache_pending_hits = 1494
L2_total_cache_reservation_fails = 0
L2_total_cache_breakdown:
	L2_cache_stats_breakdown[GLOBAL_ACC_R][HIT] = 13832
	L2_cache_stats_breakdown[GLOBAL_ACC_R][HIT_RESERVED] = 1168
	L2_cache_stats_breakdown[GLOBAL_ACC_R][MISS] = 16384
	L2_cache_stats_breakdown[GLOBAL_ACC_R][RESERVATION_FAIL] = 0
	L2_cache_stats_breakdown[LOCAL_ACC_R][HIT] = 0
	L2_cache_stats_breakdown[LOCAL_ACC_R][HIT_RESERVED] = 0
	L2_cache_stats_breakdown[LOCAL_ACC_R][MISS] = 0
	L2_cache_stats_breakdown[LOCAL_ACC_R][RESERVATION_FAIL] = 0
	L2_cache_stats_breakdown[CONST_ACC_R][HIT] = 0
	L2_cache_stats_breakdown[CONST_ACC_R][HIT_RESERVED] = 27
	L2_cache_stats_breakdown[CONST_ACC_R][MISS] = 1
	L2_cache_stats_breakdown[CONST_ACC_R][RESERVATION_FAIL] = 0
	L2_cache_stats_breakdown[TEXTURE_ACC_R][HIT] = 0
	L2_cache_stats_breakdown[TEXTURE_ACC_R][HIT_RESERVED] = 0
	L2_cache_stats_breakdown[TEXTURE_ACC_R][MISS] = 0
	L2_cache_stats_breakdown[TEXTURE_ACC_R][RESERVATION_FAIL] = 0
	L2_cache_stats_breakdown[GLOBAL_ACC_W][HIT] = 0
	L2_cache_stats_breakdown[GLOBAL_ACC_W][HIT_RESERVED] = 0
	L2_cache_stats_breakdown[GLOBAL_ACC_W][MISS] = 15120
	L2_cache_stats_breakdown[GLOBAL_ACC_W][RESERVATION_FAIL] = 0
	L2_cache_stats_breakdown[LOCAL_ACC_W][HIT] = 0
	L2_cache_stats_breakdown[LOCAL_ACC_W][HIT_RESERVED] = 0
	L2_cache_stats_breakdown[LOCAL_ACC_W][MISS] = 0
	L2_cache_stats_breakdown[LOCAL_ACC_W][RESERVATION_FAIL] = 0
	L2_cache_stats_breakdown[L1_WRBK_ACC][HIT] = 0
	L2_cache_stats_breakdown[L1_WRBK_ACC][HIT_RESERVED] = 0
	L2_cache_stats_breakdown[L1_WRBK_ACC][MISS] = 0
	L2_cache_stats_breakdown[L1_WRBK_ACC][RESERVATION_FAIL] = 0
	L2_cache_stats_breakdown[L2_WRBK_ACC][HIT] = 0
	L2_cache_stats_breakdown[L2_WRBK_ACC][HIT_RESERVED] = 0
	L2_cache_stats_breakdown[L2_WRBK_ACC][MISS] = 0
	L2_cache_stats_breakdown[L2_WRBK_ACC][RESERVATION_FAIL] = 0
	L2_cache_stats_breakdown[INST_ACC_R][HIT] = 160
	L2_cache_stats_breakdown[INST_ACC_R][HIT_RESERVED] = 299
	L2_cache_stats_breakdown[INST_ACC_R][MISS] = 17
	L2_cache_stats_breakdown[INST_ACC_R][RESERVATION_FAIL] = 0
	L2_cache_stats_breakdown[L1_WR_ALLOC_R][HIT] = 0
	L2_cache_stats_breakdown[L1_WR_ALLOC_R][HIT_RESERVED] = 0
	L2_cache_stats_breakdown[L1_WR_ALLOC_R][MISS] = 0
	L2_cache_stats_breakdown[L1_WR_ALLOC_R][RESERVATION_FAIL] = 0
	L2_cache_stats_breakdown[L2_WR_ALLOC_R][HIT] = 0
	L2_cache_stats_breakdown[L2_WR_ALLOC_R][HIT_RESERVED] = 0
	L2_cache_stats_breakdown[L2_WR_ALLOC_R][MISS] = 0
	L2_cache_stats_breakdown[L2_WR_ALLOC_R][RESERVATION_FAIL] = 0
	L2_cache_stats_breakdown[GLOBAL_ACC_R][TOTAL_ACCESS] = 31384
	L2_cache_stats_breakdown[CONST_ACC_R][TOTAL_ACCESS] = 28
	L2_cache_stats_breakdown[GLOBAL_ACC_W][TOTAL_ACCESS] = 15120
	L2_cache_stats_breakdown[INST_ACC_R][TOTAL_ACCESS] = 476
L2_cache_data_port_util = 0.002
L2_cache_fill_port_util = 0.007

icnt_total_pkts_mem_to_simt=151824
icnt_total_pkts_simt_to_mem=107488
LD_mem_lat_dist  0 0 0 0 0 0 0 0 0 0 0 0 0 0 0 0 0 0 0 0 0 0 0 0 0 0 0
ST_mem_lat_dist  0 0 0 0 0 0 0 0 0 0 0 0 0 0 0 0 0 0 0 0 0 0 0 0 0 0 0
----------------------------Interconnect-DETAILS--------------------------------
Class 0:
Packet latency average = 22.4236
	minimum = 6
	maximum = 1541
Network latency average = 18.1654
	minimum = 6
	maximum = 1366
Slowest packet = 41119
Flit latency average = 21.0519
	minimum = 6
	maximum = 1362
Slowest flit = 116162
Fragmentation average = 1.00615
	minimum = 0
	maximum = 1289
Injected packet rate average = 0.00122663
	minimum = 0.000972001 (at node 0)
	maximum = 0.00145213 (at node 3)
Accepted packet rate average = 0.00122663
	minimum = 0.000972001 (at node 0)
	maximum = 0.00145213 (at node 3)
Injected flit rate average = 0.00338324
	minimum = 0.00222451 (at node 0)
	maximum = 0.00457884 (at node 28)
Accepted flit rate average= 0.00338324
	minimum = 0.0031365 (at node 0)
	maximum = 0.00467604 (at node 3)
Injected packet length average = 2.75817
Accepted packet length average = 2.75817
Total in-flight flits = 0 (0 measured)
====== Overall Traffic Statistics ======
====== Traffic class 0 ======
Packet latency average = 22.4236 (1 samples)
	minimum = 6 (1 samples)
	maximum = 1541 (1 samples)
Network latency average = 18.1654 (1 samples)
	minimum = 6 (1 samples)
	maximum = 1366 (1 samples)
Flit latency average = 21.0519 (1 samples)
	minimum = 6 (1 samples)
	maximum = 1362 (1 samples)
Fragmentation average = 1.00615 (1 samples)
	minimum = 0 (1 samples)
	maximum = 1289 (1 samples)
Injected packet rate average = 0.00122663 (1 samples)
	minimum = 0.000972001 (1 samples)
	maximum = 0.00145213 (1 samples)
Accepted packet rate average = 0.00122663 (1 samples)
	minimum = 0.000972001 (1 samples)
	maximum = 0.00145213 (1 samples)
Injected flit rate average = 0.00338324 (1 samples)
	minimum = 0.00222451 (1 samples)
	maximum = 0.00457884 (1 samples)
Accepted flit rate average = 0.00338324 (1 samples)
	minimum = 0.0031365 (1 samples)
	maximum = 0.00467604 (1 samples)
Injected packet size average = 2.75817 (1 samples)
Accepted packet size average = 2.75817 (1 samples)
Hops average = 1 (1 samples)
----------------------------END-of-Interconnect-DETAILS-------------------------


gpgpu_simulation_time = 0 days, 0 hrs, 24 min, 52 sec (1492 sec)
gpgpu_simulation_rate = 19335 (inst/sec)
gpgpu_simulation_rate = 662 (cycle/sec)

GPGPU-Sim PTX: cudaLaunch for 0x0x401496 (mode=performance simulation) on stream 0
GPGPU-Sim PTX: pushing kernel '_Z24block2D_hybrid_coarsen_xffPfS_iii' to stream 0, gridDim= (2,32,1) blockDim = (32,4,1) 
GPGPU-Sim uArch: Shader 9 bind to kernel 2 '_Z24block2D_hybrid_coarsen_xffPfS_iii'
GPGPU-Sim uArch: Shader 10 bind to kernel 2 '_Z24block2D_hybrid_coarsen_xffPfS_iii'
GPGPU-Sim uArch: Shader 11 bind to kernel 2 '_Z24block2D_hybrid_coarsen_xffPfS_iii'
GPGPU-Sim uArch: Shader 12 bind to kernel 2 '_Z24block2D_hybrid_coarsen_xffPfS_iii'
GPGPU-Sim uArch: Shader 13 bind to kernel 2 '_Z24block2D_hybrid_coarsen_xffPfS_iii'
GPGPU-Sim uArch: Shader 14 bind to kernel 2 '_Z24block2D_hybrid_coarsen_xffPfS_iii'
GPGPU-Sim uArch: Shader 15 bind to kernel 2 '_Z24block2D_hybrid_coarsen_xffPfS_iii'
GPGPU-Sim uArch: Shader 16 bind to kernel 2 '_Z24block2D_hybrid_coarsen_xffPfS_iii'
GPGPU-Sim uArch: Shader 17 bind to kernel 2 '_Z24block2D_hybrid_coarsen_xffPfS_iii'
GPGPU-Sim uArch: Shader 18 bind to kernel 2 '_Z24block2D_hybrid_coarsen_xffPfS_iii'
GPGPU-Sim uArch: Shader 19 bind to kernel 2 '_Z24block2D_hybrid_coarsen_xffPfS_iii'
GPGPU-Sim uArch: Shader 20 bind to kernel 2 '_Z24block2D_hybrid_coarsen_xffPfS_iii'
GPGPU-Sim uArch: Shader 21 bind to kernel 2 '_Z24block2D_hybrid_coarsen_xffPfS_iii'
GPGPU-Sim uArch: Shader 22 bind to kernel 2 '_Z24block2D_hybrid_coarsen_xffPfS_iii'
GPGPU-Sim uArch: Shader 23 bind to kernel 2 '_Z24block2D_hybrid_coarsen_xffPfS_iii'
GPGPU-Sim uArch: Shader 24 bind to kernel 2 '_Z24block2D_hybrid_coarsen_xffPfS_iii'
GPGPU-Sim uArch: Shader 25 bind to kernel 2 '_Z24block2D_hybrid_coarsen_xffPfS_iii'
GPGPU-Sim uArch: Shader 26 bind to kernel 2 '_Z24block2D_hybrid_coarsen_xffPfS_iii'
GPGPU-Sim uArch: Shader 27 bind to kernel 2 '_Z24block2D_hybrid_coarsen_xffPfS_iii'
GPGPU-Sim uArch: Shader 0 bind to kernel 2 '_Z24block2D_hybrid_coarsen_xffPfS_iii'
GPGPU-Sim uArch: Shader 1 bind to kernel 2 '_Z24block2D_hybrid_coarsen_xffPfS_iii'
GPGPU-Sim uArch: Shader 2 bind to kernel 2 '_Z24block2D_hybrid_coarsen_xffPfS_iii'
GPGPU-Sim uArch: Shader 3 bind to kernel 2 '_Z24block2D_hybrid_coarsen_xffPfS_iii'
GPGPU-Sim uArch: Shader 4 bind to kernel 2 '_Z24block2D_hybrid_coarsen_xffPfS_iii'
GPGPU-Sim uArch: Shader 5 bind to kernel 2 '_Z24block2D_hybrid_coarsen_xffPfS_iii'
GPGPU-Sim uArch: Shader 6 bind to kernel 2 '_Z24block2D_hybrid_coarsen_xffPfS_iii'
GPGPU-Sim uArch: Shader 7 bind to kernel 2 '_Z24block2D_hybrid_coarsen_xffPfS_iii'
GPGPU-Sim uArch: Shader 8 bind to kernel 2 '_Z24block2D_hybrid_coarsen_xffPfS_iii'
Destroy streams for kernel 2: size 0
kernel_name = _Z24block2D_hybrid_coarsen_xffPfS_iii 
kernel_launch_uid = 2 
gpu_sim_cycle = 461767
gpu_sim_insn = 28848876
gpu_ipc =      62.4750
gpu_tot_sim_cycle = 1672528
gpu_tot_sim_insn = 57697752
gpu_tot_ipc =      34.4973
gpu_tot_issued_cta = 128
max_total_param_size = 0
gpu_stall_dramfull = 94665
gpu_stall_icnt2sh    = 2522
partiton_reqs_in_parallel = 10158874
partiton_reqs_in_parallel_total    = 16767477
partiton_level_parallism =      22.0000
partiton_level_parallism_total  =      16.0992
partiton_reqs_in_parallel_util = 10158874
partiton_reqs_in_parallel_util_total    = 16767477
gpu_sim_cycle_parition_util = 461767
gpu_tot_sim_cycle_parition_util    = 765486
partiton_level_parallism_util =      22.0000
partiton_level_parallism_util_total  =      21.9403
partiton_replys_in_parallel = 46504
partiton_replys_in_parallel_total    = 47008
L2_BW  =       9.5456 GB/Sec
L2_BW_total  =       5.2994 GB/Sec
gpu_total_sim_rate=25417

========= Core cache stats =========
L1I_cache:
	L1I_total_cache_accesses = 1158456
	L1I_total_cache_misses = 3000
	L1I_total_cache_miss_rate = 0.0026
	L1I_total_cache_pending_hits = 0
	L1I_total_cache_reservation_fails = 0
L1D_cache:
	L1D_cache_core[0]: Access = 0, Miss = 0, Miss_rate = -nan, Pending_hits = 0, Reservation_fails = 0
	L1D_cache_core[1]: Access = 0, Miss = 0, Miss_rate = -nan, Pending_hits = 0, Reservation_fails = 0
	L1D_cache_core[2]: Access = 0, Miss = 0, Miss_rate = -nan, Pending_hits = 0, Reservation_fails = 0
	L1D_cache_core[3]: Access = 0, Miss = 0, Miss_rate = -nan, Pending_hits = 0, Reservation_fails = 0
	L1D_cache_core[4]: Access = 0, Miss = 0, Miss_rate = -nan, Pending_hits = 0, Reservation_fails = 0
	L1D_cache_core[5]: Access = 0, Miss = 0, Miss_rate = -nan, Pending_hits = 0, Reservation_fails = 0
	L1D_cache_core[6]: Access = 0, Miss = 0, Miss_rate = -nan, Pending_hits = 0, Reservation_fails = 0
	L1D_cache_core[7]: Access = 0, Miss = 0, Miss_rate = -nan, Pending_hits = 0, Reservation_fails = 0
	L1D_cache_core[8]: Access = 0, Miss = 0, Miss_rate = -nan, Pending_hits = 0, Reservation_fails = 0
	L1D_cache_core[9]: Access = 0, Miss = 0, Miss_rate = -nan, Pending_hits = 0, Reservation_fails = 0
	L1D_cache_core[10]: Access = 0, Miss = 0, Miss_rate = -nan, Pending_hits = 0, Reservation_fails = 0
	L1D_cache_core[11]: Access = 0, Miss = 0, Miss_rate = -nan, Pending_hits = 0, Reservation_fails = 0
	L1D_cache_core[12]: Access = 0, Miss = 0, Miss_rate = -nan, Pending_hits = 0, Reservation_fails = 0
	L1D_cache_core[13]: Access = 0, Miss = 0, Miss_rate = -nan, Pending_hits = 0, Reservation_fails = 0
	L1D_cache_core[14]: Access = 0, Miss = 0, Miss_rate = -nan, Pending_hits = 0, Reservation_fails = 0
	L1D_cache_core[15]: Access = 0, Miss = 0, Miss_rate = -nan, Pending_hits = 0, Reservation_fails = 0
	L1D_cache_core[16]: Access = 0, Miss = 0, Miss_rate = -nan, Pending_hits = 0, Reservation_fails = 0
	L1D_cache_core[17]: Access = 0, Miss = 0, Miss_rate = -nan, Pending_hits = 0, Reservation_fails = 0
	L1D_cache_core[18]: Access = 0, Miss = 0, Miss_rate = -nan, Pending_hits = 0, Reservation_fails = 0
	L1D_cache_core[19]: Access = 0, Miss = 0, Miss_rate = -nan, Pending_hits = 0, Reservation_fails = 0
	L1D_cache_core[20]: Access = 0, Miss = 0, Miss_rate = -nan, Pending_hits = 0, Reservation_fails = 0
	L1D_cache_core[21]: Access = 0, Miss = 0, Miss_rate = -nan, Pending_hits = 0, Reservation_fails = 0
[...]
F: 27165549----T: 27168154 	 St: 80471000 Sz: 4096 	 Sm: 0 	 T: memcpy_h2d(1.758947)
F: 27165549----T: 27168154 	 St: 803c8000 Sz: 4096 	 Sm: 0 	 T: write_back(1.758947)
F: 27168154----T: 27170759 	 St: 804c2000 Sz: 4096 	 Sm: 0 	 T: memcpy_h2d(1.758947)
F: 27168154----T: 27170759 	 St: 8053f000 Sz: 4096 	 Sm: 0 	 T: write_back(1.758947)
F: 27170759----T: 27173364 	 St: 80501000 Sz: 4096 	 Sm: 0 	 T: memcpy_h2d(1.758947)
F: 27170759----T: 27173364 	 St: 804c8000 Sz: 4096 	 Sm: 0 	 T: write_back(1.758947)
F: 27173364----T: 27175969 	 St: 80752000 Sz: 4096 	 Sm: 0 	 T: memcpy_h2d(1.758947)
F: 27173364----T: 27175969 	 St: 804c7000 Sz: 4096 	 Sm: 0 	 T: write_back(1.758947)
F: 27175969----T: 27178574 	 St: 80751000 Sz: 4096 	 Sm: 0 	 T: memcpy_h2d(1.758947)
F: 27175969----T: 27178574 	 St: 8068e000 Sz: 4096 	 Sm: 0 	 T: write_back(1.758947)
F: 27178574----T: 27181179 	 St: 8056c000 Sz: 4096 	 Sm: 0 	 T: memcpy_h2d(1.758947)
F: 27178574----T: 27181179 	 St: 806a8000 Sz: 4096 	 Sm: 0 	 T: write_back(1.758947)
F: 27181179----T: 27183784 	 St: 8079c000 Sz: 4096 	 Sm: 0 	 T: memcpy_h2d(1.758947)
F: 27181179----T: 27183784 	 St: 8062e000 Sz: 4096 	 Sm: 0 	 T: write_back(1.758947)
F: 27183784----T: 27186389 	 St: 806b4000 Sz: 4096 	 Sm: 0 	 T: memcpy_h2d(1.758947)
F: 27183784----T: 27186389 	 St: 806c0000 Sz: 4096 	 Sm: 0 	 T: write_back(1.758947)
F: 27186389----T: 27188994 	 St: 806d3000 Sz: 4096 	 Sm: 0 	 T: memcpy_h2d(1.758947)
F: 27186389----T: 27188994 	 St: 80625000 Sz: 4096 	 Sm: 0 	 T: write_back(1.758947)
F: 27188994----T: 27191599 	 St: 80468000 Sz: 4096 	 Sm: 0 	 T: memcpy_h2d(1.758947)
F: 27188994----T: 27191599 	 St: 80568000 Sz: 4096 	 Sm: 0 	 T: write_back(1.758947)
F: 27191599----T: 27194204 	 St: 80688000 Sz: 4096 	 Sm: 0 	 T: memcpy_h2d(1.758947)
F: 27191599----T: 27194204 	 St: 8064b000 Sz: 4096 	 Sm: 0 	 T: write_back(1.758947)
F: 27194204----T: 27196809 	 St: 804e5000 Sz: 4096 	 Sm: 0 	 T: memcpy_h2d(1.758947)
F: 27194204----T: 27196809 	 St: 80673000 Sz: 4096 	 Sm: 0 	 T: write_back(1.758947)
F: 27196809----T: 27199414 	 St: 806f6000 Sz: 4096 	 Sm: 0 	 T: memcpy_h2d(1.758947)
F: 27196809----T: 27199414 	 St: 8052f000 Sz: 4096 	 Sm: 0 	 T: write_back(1.758947)
F: 27199414----T: 27202019 	 St: 8067e000 Sz: 4096 	 Sm: 0 	 T: memcpy_h2d(1.758947)
F: 27199414----T: 27202019 	 St: 804fc000 Sz: 4096 	 Sm: 0 	 T: write_back(1.758947)
F: 27202019----T: 27204624 	 St: 803f7000 Sz: 4096 	 Sm: 0 	 T: memcpy_h2d(1.758947)
F: 27202019----T: 27204624 	 St: 805df000 Sz: 4096 	 Sm: 0 	 T: write_back(1.758947)
F: 27204624----T: 27207229 	 St: 80428000 Sz: 4096 	 Sm: 0 	 T: memcpy_h2d(1.758947)
F: 27204624----T: 27207229 	 St: 806d7000 Sz: 4096 	 Sm: 0 	 T: write_back(1.758947)
F: 27207229----T: 27209834 	 St: 80648000 Sz: 4096 	 Sm: 0 	 T: memcpy_h2d(1.758947)
F: 27207229----T: 27209834 	 St: 80535000 Sz: 4096 	 Sm: 0 	 T: write_back(1.758947)
F: 27209834----T: 27212439 	 St: 80637000 Sz: 4096 	 Sm: 0 	 T: memcpy_h2d(1.758947)
F: 27209834----T: 27212439 	 St: 80603000 Sz: 4096 	 Sm: 0 	 T: write_back(1.758947)
F: 27212439----T: 27215044 	 St: 80650000 Sz: 4096 	 Sm: 0 	 T: memcpy_h2d(1.758947)
F: 27212439----T: 27215044 	 St: 80766000 Sz: 4096 	 Sm: 0 	 T: write_back(1.758947)
F: 27215044----T: 27217649 	 St: 806eb000 Sz: 4096 	 Sm: 0 	 T: memcpy_h2d(1.758947)
F: 27215044----T: 27217649 	 St: 8052d000 Sz: 4096 	 Sm: 0 	 T: write_back(1.758947)
F: 27217649----T: 27220254 	 St: 804b9000 Sz: 4096 	 Sm: 0 	 T: memcpy_h2d(1.758947)
F: 27217649----T: 27220254 	 St: 80643000 Sz: 4096 	 Sm: 0 	 T: write_back(1.758947)
F: 27220254----T: 27222859 	 St: 804c9000 Sz: 4096 	 Sm: 0 	 T: memcpy_h2d(1.758947)
F: 27220254----T: 27222859 	 St: 80635000 Sz: 4096 	 Sm: 0 	 T: write_back(1.758947)
F: 27222859----T: 27225464 	 St: 8074a000 Sz: 4096 	 Sm: 0 	 T: memcpy_h2d(1.758947)
F: 27222859----T: 27225464 	 St: 80652000 Sz: 4096 	 Sm: 0 	 T: write_back(1.758947)
F: 27225464----T: 27228069 	 St: 80759000 Sz: 4096 	 Sm: 0 	 T: memcpy_h2d(1.758947)
F: 27225464----T: 27228069 	 St: 80435000 Sz: 4096 	 Sm: 0 	 T: write_back(1.758947)
F: 27228069----T: 27230674 	 St: 80551000 Sz: 4096 	 Sm: 0 	 T: memcpy_h2d(1.758947)
F: 27228069----T: 27230674 	 St: 80727000 Sz: 4096 	 Sm: 0 	 T: write_back(1.758947)
F: 27230674----T: 27233279 	 St: 80792000 Sz: 4096 	 Sm: 0 	 T: memcpy_h2d(1.758947)
F: 27230674----T: 27233279 	 St: 80595000 Sz: 4096 	 Sm: 0 	 T: write_back(1.758947)
F: 27233279----T: 27235884 	 St: 80781000 Sz: 4096 	 Sm: 0 	 T: memcpy_h2d(1.758947)
F: 27233279----T: 27235884 	 St: 8061f000 Sz: 4096 	 Sm: 0 	 T: write_back(1.758947)
F: 27235884----T: 27238489 	 St: 804b4000 Sz: 4096 	 Sm: 0 	 T: memcpy_h2d(1.758947)
F: 27235884----T: 27238489 	 St: 80751000 Sz: 4096 	 Sm: 0 	 T: write_back(1.758947)
F: 27238489----T: 27241094 	 St: 806e3000 Sz: 4096 	 Sm: 0 	 T: memcpy_h2d(1.758947)
F: 27238489----T: 27241094 	 St: 80426000 Sz: 4096 	 Sm: 0 	 T: write_back(1.758947)
F: 27241094----T: 27243699 	 St: 806f4000 Sz: 4096 	 Sm: 0 	 T: memcpy_h2d(1.758947)
F: 27241094----T: 27243699 	 St: 8060d000 Sz: 4096 	 Sm: 0 	 T: write_back(1.758947)
F: 27243699----T: 27246304 	 St: 80488000 Sz: 4096 	 Sm: 0 	 T: memcpy_h2d(1.758947)
F: 27243699----T: 27246304 	 St: 804e4000 Sz: 4096 	 Sm: 0 	 T: write_back(1.758947)
F: 27246304----T: 27248909 	 St: 806a8000 Sz: 4096 	 Sm: 0 	 T: memcpy_h2d(1.758947)
F: 27246304----T: 27248909 	 St: 80469000 Sz: 4096 	 Sm: 0 	 T: write_back(1.758947)
F: 27248909----T: 27251514 	 St: 8068e000 Sz: 4096 	 Sm: 0 	 T: memcpy_h2d(1.758947)
F: 27248909----T: 27251514 	 St: 80778000 Sz: 4096 	 Sm: 0 	 T: write_back(1.758947)
F: 27251514----T: 27254119 	 St: 80745000 Sz: 4096 	 Sm: 0 	 T: memcpy_h2d(1.758947)
F: 27251514----T: 27254119 	 St: 80662000 Sz: 4096 	 Sm: 0 	 T: write_back(1.758947)
F: 27254119----T: 27256724 	 St: 80526000 Sz: 4096 	 Sm: 0 	 T: memcpy_h2d(1.758947)
F: 27254119----T: 27256724 	 St: 8075f000 Sz: 4096 	 Sm: 0 	 T: write_back(1.758947)
F: 27256724----T: 27259329 	 St: 80756000 Sz: 4096 	 Sm: 0 	 T: memcpy_h2d(1.758947)
F: 27256724----T: 27259329 	 St: 80453000 Sz: 4096 	 Sm: 0 	 T: write_back(1.758947)
F: 27259329----T: 27261934 	 St: 80680000 Sz: 4096 	 Sm: 0 	 T: memcpy_h2d(1.758947)
F: 27259329----T: 27261934 	 St: 8054e000 Sz: 4096 	 Sm: 0 	 T: write_back(1.758947)
F: 27261934----T: 27264539 	 St: 804fc000 Sz: 4096 	 Sm: 0 	 T: memcpy_h2d(1.758947)
F: 27261934----T: 27264539 	 St: 803ec000 Sz: 4096 	 Sm: 0 	 T: write_back(1.758947)
F: 27264539----T: 27267144 	 St: 8071b000 Sz: 4096 	 Sm: 0 	 T: memcpy_h2d(1.758947)
F: 27264539----T: 27267144 	 St: 8049c000 Sz: 4096 	 Sm: 0 	 T: write_back(1.758947)
F: 27267144----T: 27269749 	 St: 806d7000 Sz: 4096 	 Sm: 0 	 T: memcpy_h2d(1.758947)
F: 27267144----T: 27269749 	 St: 80581000 Sz: 4096 	 Sm: 0 	 T: write_back(1.758947)
F: 27269749----T: 27272354 	 St: 80776000 Sz: 4096 	 Sm: 0 	 T: memcpy_h2d(1.758947)
F: 27269749----T: 27272354 	 St: 80454000 Sz: 4096 	 Sm: 0 	 T: write_back(1.758947)
F: 27272354----T: 27274959 	 St: 8079a000 Sz: 4096 	 Sm: 0 	 T: memcpy_h2d(1.758947)
F: 27272354----T: 27274959 	 St: 805c4000 Sz: 4096 	 Sm: 0 	 T: write_back(1.758947)
F: 27274959----T: 27277564 	 St: 807a1000 Sz: 4096 	 Sm: 0 	 T: memcpy_h2d(1.758947)
F: 27274959----T: 27277564 	 St: 804dc000 Sz: 4096 	 Sm: 0 	 T: write_back(1.758947)
F: 27277564----T: 27280169 	 St: 804d3000 Sz: 4096 	 Sm: 0 	 T: memcpy_h2d(1.758947)
F: 27277564----T: 27280169 	 St: 8079e000 Sz: 4096 	 Sm: 0 	 T: write_back(1.758947)
F: 27280169----T: 27282774 	 St: 80703000 Sz: 4096 	 Sm: 0 	 T: memcpy_h2d(1.758947)
F: 27280169----T: 27282774 	 St: 8079d000 Sz: 4096 	 Sm: 0 	 T: write_back(1.758947)
F: 27282774----T: 27285379 	 St: 804e4000 Sz: 4096 	 Sm: 0 	 T: memcpy_h2d(1.758947)
F: 27282774----T: 27285379 	 St: 805ed000 Sz: 4096 	 Sm: 0 	 T: write_back(1.758947)
F: 27285379----T: 27287984 	 St: 80504000 Sz: 4096 	 Sm: 0 	 T: memcpy_h2d(1.758947)
F: 27285379----T: 27287984 	 St: 80500000 Sz: 4096 	 Sm: 0 	 T: write_back(1.758947)
F: 27287984----T: 27290589 	 St: 80544000 Sz: 4096 	 Sm: 0 	 T: memcpy_h2d(1.758947)
F: 27287984----T: 27290589 	 St: 8063c000 Sz: 4096 	 Sm: 0 	 T: write_back(1.758947)
F: 27290589----T: 27293194 	 St: 80520000 Sz: 4096 	 Sm: 0 	 T: memcpy_h2d(1.758947)
F: 27290589----T: 27293194 	 St: 805f1000 Sz: 4096 	 Sm: 0 	 T: write_back(1.758947)
F: 27293194----T: 27295799 	 St: 804c8000 Sz: 4096 	 Sm: 0 	 T: memcpy_h2d(1.758947)
F: 27293194----T: 27295799 	 St: 805b2000 Sz: 4096 	 Sm: 0 	 T: write_back(1.758947)
F: 27295799----T: 27298404 	 St: 806ae000 Sz: 4096 	 Sm: 0 	 T: memcpy_h2d(1.758947)
F: 27295799----T: 27298404 	 St: 80694000 Sz: 4096 	 Sm: 0 	 T: write_back(1.758947)
F: 27298404----T: 27301009 	 St: 804d8000 Sz: 4096 	 Sm: 0 	 T: memcpy_h2d(1.758947)
F: 27298404----T: 27301009 	 St: 805e8000 Sz: 4096 	 Sm: 0 	 T: write_back(1.758947)
F: 27301009----T: 27303614 	 St: 80535000 Sz: 4096 	 Sm: 0 	 T: memcpy_h2d(1.758947)
F: 27301009----T: 27303614 	 St: 80757000 Sz: 4096 	 Sm: 0 	 T: write_back(1.758947)
F: 27303614----T: 27306219 	 St: 80508000 Sz: 4096 	 Sm: 0 	 T: memcpy_h2d(1.758947)
F: 27303614----T: 27306219 	 St: 805b8000 Sz: 4096 	 Sm: 0 	 T: write_back(1.758947)
F: 27306219----T: 27308824 	 St: 80775000 Sz: 4096 	 Sm: 0 	 T: memcpy_h2d(1.758947)
F: 27306219----T: 27308824 	 St: 8044a000 Sz: 4096 	 Sm: 0 	 T: write_back(1.758947)
F: 27308824----T: 27311429 	 St: 80518000 Sz: 4096 	 Sm: 0 	 T: memcpy_h2d(1.758947)
F: 27308824----T: 27311429 	 St: 805bb000 Sz: 4096 	 Sm: 0 	 T: write_back(1.758947)
F: 27311429----T: 27314034 	 St: 80546000 Sz: 4096 	 Sm: 0 	 T: memcpy_h2d(1.758947)
F: 27311429----T: 27314034 	 St: 805fc000 Sz: 4096 	 Sm: 0 	 T: write_back(1.758947)
F: 27314034----T: 27316639 	 St: 80766000 Sz: 4096 	 Sm: 0 	 T: memcpy_h2d(1.758947)
F: 27314034----T: 27316639 	 St: 80688000 Sz: 4096 	 Sm: 0 	 T: write_back(1.758947)
F: 27316639----T: 27319244 	 St: 80768000 Sz: 4096 	 Sm: 0 	 T: memcpy_h2d(1.758947)
F: 27316639----T: 27319244 	 St: 805c9000 Sz: 4096 	 Sm: 0 	 T: write_back(1.758947)
F: 27319244----T: 27321849 	 St: 80480000 Sz: 4096 	 Sm: 0 	 T: memcpy_h2d(1.758947)
F: 27319244----T: 27321849 	 St: 80483000 Sz: 4096 	 Sm: 0 	 T: write_back(1.758947)
F: 27321849----T: 27324454 	 St: 804a0000 Sz: 4096 	 Sm: 0 	 T: memcpy_h2d(1.758947)
F: 27321849----T: 27324454 	 St: 8053a000 Sz: 4096 	 Sm: 0 	 T: write_back(1.758947)
F: 27324454----T: 27327059 	 St: 806c0000 Sz: 4096 	 Sm: 0 	 T: memcpy_h2d(1.758947)
F: 27324454----T: 27327059 	 St: 804d0000 Sz: 4096 	 Sm: 0 	 T: write_back(1.758947)
F: 27327059----T: 27329664 	 St: 804c7000 Sz: 4096 	 Sm: 0 	 T: memcpy_h2d(1.758947)
F: 27327059----T: 27329664 	 St: 805c8000 Sz: 4096 	 Sm: 0 	 T: write_back(1.758947)
F: 27329664----T: 27332269 	 St: 806e7000 Sz: 4096 	 Sm: 0 	 T: memcpy_h2d(1.758947)
F: 27329664----T: 27332269 	 St: 80570000 Sz: 4096 	 Sm: 0 	 T: write_back(1.758947)
F: 27332269----T: 27334874 	 St: 80635000 Sz: 4096 	 Sm: 0 	 T: memcpy_h2d(1.758947)
F: 27332269----T: 27334874 	 St: 80589000 Sz: 4096 	 Sm: 0 	 T: write_back(1.758947)
F: 27334874----T: 27337479 	 St: 80553000 Sz: 4096 	 Sm: 0 	 T: memcpy_h2d(1.758947)
F: 27334874----T: 27337479 	 St: 80761000 Sz: 4096 	 Sm: 0 	 T: write_back(1.758947)
F: 27337479----T: 27340084 	 St: 8052d000 Sz: 4096 	 Sm: 0 	 T: memcpy_h2d(1.758947)
F: 27337479----T: 27340084 	 St: 803dc000 Sz: 4096 	 Sm: 0 	 T: write_back(1.758947)
F: 27340084----T: 27342689 	 St: 8052f000 Sz: 4096 	 Sm: 0 	 T: memcpy_h2d(1.758947)
F: 27340084----T: 27342689 	 St: 80663000 Sz: 4096 	 Sm: 0 	 T: write_back(1.758947)
F: 27342689----T: 27345294 	 St: 8053f000 Sz: 4096 	 Sm: 0 	 T: memcpy_h2d(1.758947)
F: 27342689----T: 27345294 	 St: 803b2000 Sz: 4096 	 Sm: 0 	 T: write_back(1.758947)
F: 27345294----T: 27347899 	 St: 8075f000 Sz: 4096 	 Sm: 0 	 T: memcpy_h2d(1.758947)
F: 27345294----T: 27347899 	 St: 805a2000 Sz: 4096 	 Sm: 0 	 T: write_back(1.758947)
F: 27347899----T: 27350504 	 St: 8053e000 Sz: 4096 	 Sm: 0 	 T: memcpy_h2d(1.758947)
F: 27347899----T: 27350504 	 St: 80693000 Sz: 4096 	 Sm: 0 	 T: write_back(1.758947)
F: 27350504----T: 27353109 	 St: 80795000 Sz: 4096 	 Sm: 0 	 T: memcpy_h2d(1.758947)
F: 27350504----T: 27353109 	 St: 804f0000 Sz: 4096 	 Sm: 0 	 T: write_back(1.758947)
F: 27353109----T: 27355714 	 St: 8054e000 Sz: 4096 	 Sm: 0 	 T: memcpy_h2d(1.758947)
F: 27353109----T: 27355714 	 St: 803a6000 Sz: 4096 	 Sm: 0 	 T: write_back(1.758947)
F: 27355714----T: 27358319 	 St: 8079d000 Sz: 4096 	 Sm: 0 	 T: memcpy_h2d(1.758947)
F: 27355714----T: 27358319 	 St: 8065b000 Sz: 4096 	 Sm: 0 	 T: write_back(1.758947)
F: 27358319----T: 27360924 	 St: 8079e000 Sz: 4096 	 Sm: 0 	 T: memcpy_h2d(1.758947)
F: 27358319----T: 27360924 	 St: 80536000 Sz: 4096 	 Sm: 0 	 T: write_back(1.758947)
F: 27360924----T: 27363529 	 St: 80796000 Sz: 4096 	 Sm: 0 	 T: memcpy_h2d(1.758947)
F: 27360924----T: 27363529 	 St: 80456000 Sz: 4096 	 Sm: 0 	 T: write_back(1.758947)
F: 27363529----T: 27366134 	 St: 80778000 Sz: 4096 	 Sm: 0 	 T: memcpy_h2d(1.758947)
F: 27363529----T: 27366134 	 St: 8067e000 Sz: 4096 	 Sm: 0 	 T: write_back(1.758947)
F: 27366134----T: 27368739 	 St: 804b0000 Sz: 4096 	 Sm: 0 	 T: memcpy_h2d(1.758947)
F: 27366134----T: 27368739 	 St: 806c2000 Sz: 4096 	 Sm: 0 	 T: write_back(1.758947)
F: 27368739----T: 27371344 	 St: 806e0000 Sz: 4096 	 Sm: 0 	 T: memcpy_h2d(1.758947)
F: 27368739----T: 27371344 	 St: 80709000 Sz: 4096 	 Sm: 0 	 T: write_back(1.758947)
F: 27371344----T: 27373949 	 St: 804e7000 Sz: 4096 	 Sm: 0 	 T: memcpy_h2d(1.758947)
F: 27371344----T: 27373949 	 St: 80574000 Sz: 4096 	 Sm: 0 	 T: write_back(1.758947)
F: 27373949----T: 27376554 	 St: 804f7000 Sz: 4096 	 Sm: 0 	 T: memcpy_h2d(1.758947)
F: 27373949----T: 27376554 	 St: 804e6000 Sz: 4096 	 Sm: 0 	 T: write_back(1.758947)
F: 27376554----T: 27379159 	 St: 80727000 Sz: 4096 	 Sm: 0 	 T: memcpy_h2d(1.758947)
F: 27376554----T: 27379159 	 St: 8068c000 Sz: 4096 	 Sm: 0 	 T: write_back(1.758947)
F: 27379159----T: 27381764 	 St: 80568000 Sz: 4096 	 Sm: 0 	 T: memcpy_h2d(1.758947)
F: 27379159----T: 27381764 	 St: 805e4000 Sz: 4096 	 Sm: 0 	 T: write_back(1.758947)
F: 27381764----T: 27384369 	 St: 80788000 Sz: 4096 	 Sm: 0 	 T: memcpy_h2d(1.758947)
F: 27381764----T: 27384369 	 St: 80584000 Sz: 4096 	 Sm: 0 	 T: write_back(1.758947)
F: 27384369----T: 27386974 	 St: 80589000 Sz: 4096 	 Sm: 0 	 T: memcpy_h2d(1.758947)
F: 27384369----T: 27386974 	 St: 804d5000 Sz: 4096 	 Sm: 0 	 T: write_back(1.758947)
F: 27386974----T: 27389579 	 St: 804d0000 Sz: 4096 	 Sm: 0 	 T: memcpy_h2d(1.758947)
F: 27386974----T: 27389579 	 St: 803b3000 Sz: 4096 	 Sm: 0 	 T: write_back(1.758947)
F: 27389579----T: 27392184 	 St: 804f0000 Sz: 4096 	 Sm: 0 	 T: memcpy_h2d(1.758947)
F: 27389579----T: 27392184 	 St: 80655000 Sz: 4096 	 Sm: 0 	 T: write_back(1.758947)
F: 27392184----T: 27394789 	 St: 80710000 Sz: 4096 	 Sm: 0 	 T: memcpy_h2d(1.758947)
F: 27392184----T: 27394789 	 St: 804e0000 Sz: 4096 	 Sm: 0 	 T: write_back(1.758947)
F: 27394789----T: 27397394 	 St: 80517000 Sz: 4096 	 Sm: 0 	 T: memcpy_h2d(1.758947)
F: 27394789----T: 27397394 	 St: 8057f000 Sz: 4096 	 Sm: 0 	 T: write_back(1.758947)
F: 27397394----T: 27399999 	 St: 80737000 Sz: 4096 	 Sm: 0 	 T: memcpy_h2d(1.758947)
F: 27397394----T: 27399999 	 St: 806fb000 Sz: 4096 	 Sm: 0 	 T: write_back(1.758947)
F: 27399999----T: 27402604 	 St: 80536000 Sz: 4096 	 Sm: 0 	 T: memcpy_h2d(1.758947)
F: 27399999----T: 27402604 	 St: 805aa000 Sz: 4096 	 Sm: 0 	 T: write_back(1.758947)
F: 27402604----T: 27405209 	 St: 80798000 Sz: 4096 	 Sm: 0 	 T: memcpy_h2d(1.758947)
F: 27402604----T: 27405209 	 St: 806e4000 Sz: 4096 	 Sm: 0 	 T: write_back(1.758947)
F: 27405209----T: 27407814 	 St: 80500000 Sz: 4096 	 Sm: 0 	 T: memcpy_h2d(1.758947)
F: 27405209----T: 27407814 	 St: 8048e000 Sz: 4096 	 Sm: 0 	 T: write_back(1.758947)
F: 27407814----T: 27410419 	 St: 80510000 Sz: 4096 	 Sm: 0 	 T: memcpy_h2d(1.758947)
F: 27407814----T: 27410419 	 St: 8049f000 Sz: 4096 	 Sm: 0 	 T: write_back(1.758947)
F: 27410419----T: 27413024 	 St: 803ec000 Sz: 4096 	 Sm: 0 	 T: memcpy_h2d(1.758947)
F: 27410419----T: 27413024 	 St: 806e6000 Sz: 4096 	 Sm: 0 	 T: write_back(1.758947)
F: 27413024----T: 27415629 	 St: 80751000 Sz: 4096 	 Sm: 0 	 T: memcpy_h2d(1.758947)
F: 27413024----T: 27415629 	 St: 8051b000 Sz: 4096 	 Sm: 0 	 T: write_back(1.758947)
F: 27415629----T: 27418234 	 St: 80757000 Sz: 4096 	 Sm: 0 	 T: memcpy_h2d(1.758947)
F: 27415629----T: 27418234 	 St: 805ea000 Sz: 4096 	 Sm: 0 	 T: write_back(1.758947)
F: 27418234----T: 27420839 	 St: 80570000 Sz: 4096 	 Sm: 0 	 T: memcpy_h2d(1.758947)
F: 27418234----T: 27420839 	 St: 80631000 Sz: 4096 	 Sm: 0 	 T: write_back(1.758947)
F: 27420839----T: 27423444 	 St: 8057f000 Sz: 4096 	 Sm: 0 	 T: memcpy_h2d(1.758947)
F: 27420839----T: 27423444 	 St: 80509000 Sz: 4096 	 Sm: 0 	 T: write_back(1.758947)
F: 27423444----T: 27426049 	 St: 80761000 Sz: 4096 	 Sm: 0 	 T: memcpy_h2d(1.758947)
F: 27423444----T: 27426049 	 St: 80774000 Sz: 4096 	 Sm: 0 	 T: write_back(1.758947)
F: 27426049----T: 27428654 	 St: 80567000 Sz: 4096 	 Sm: 0 	 T: memcpy_h2d(1.758947)
F: 27426049----T: 27428654 	 St: 80720000 Sz: 4096 	 Sm: 0 	 T: write_back(1.758947)
F: 27428655----T: 27431260 	 St: 80797000 Sz: 4096 	 Sm: 0 	 T: memcpy_h2d(1.758947)
F: 27428655----T: 27431260 	 St: 804ff000 Sz: 4096 	 Sm: 0 	 T: write_back(1.758947)
F: 27431261----T: 27433866 	 St: 80581000 Sz: 4096 	 Sm: 0 	 T: memcpy_h2d(1.758947)
F: 27431261----T: 27433866 	 St: 803e9000 Sz: 4096 	 Sm: 0 	 T: write_back(1.758947)
F: 27434145----T: 27436750 	 St: 0 Sz: 4096 	 Sm: 0 	 T: device_sync(1.758947)
F: 27434145----T: 27442385 	 St: 0 Sz: 61440 	 Sm: 0 	 T: device_sync(5.563808)
F: 27444990----T: 27447595 	 St: 0 Sz: 4096 	 Sm: 0 	 T: device_sync(1.758947)
F: 27444990----T: 27453230 	 St: 0 Sz: 61440 	 Sm: 0 	 T: device_sync(5.563808)
F: 27455835----T: 27458440 	 St: 0 Sz: 4096 	 Sm: 0 	 T: device_sync(1.758947)
F: 27455835----T: 27471530 	 St: 0 Sz: 126976 	 Sm: 0 	 T: device_sync(10.597569)
F: 27474135----T: 27476740 	 St: 0 Sz: 4096 	 Sm: 0 	 T: device_sync(1.758947)
F: 27474135----T: 27504858 	 St: 0 Sz: 258048 	 Sm: 0 	 T: device_sync(20.744766)
F: 27507463----T: 27510068 	 St: 0 Sz: 4096 	 Sm: 0 	 T: device_sync(1.758947)
F: 27507463----T: 27568299 	 St: 0 Sz: 520192 	 Sm: 0 	 T: device_sync(41.077652)
F: 27570904----T: 27573509 	 St: 0 Sz: 4096 	 Sm: 0 	 T: device_sync(1.758947)
F: 27570904----T: 27691993 	 St: 0 Sz: 1044480 	 Sm: 0 	 T: device_sync(81.761650)
F: 27694598----T: 27697203 	 St: 0 Sz: 4096 	 Sm: 0 	 T: device_sync(1.758947)
F: 27694598----T: 27702838 	 St: 0 Sz: 61440 	 Sm: 0 	 T: device_sync(5.563808)
F: 27705443----T: 27708048 	 St: 0 Sz: 4096 	 Sm: 0 	 T: device_sync(1.758947)
F: 27705443----T: 27713683 	 St: 0 Sz: 61440 	 Sm: 0 	 T: device_sync(5.563808)
F: 27716288----T: 27718893 	 St: 0 Sz: 4096 	 Sm: 0 	 T: device_sync(1.758947)
F: 27716288----T: 27731983 	 St: 0 Sz: 126976 	 Sm: 0 	 T: device_sync(10.597569)
F: 27734588----T: 27737193 	 St: 0 Sz: 4096 	 Sm: 0 	 T: device_sync(1.758947)
F: 27734588----T: 27765311 	 St: 0 Sz: 258048 	 Sm: 0 	 T: device_sync(20.744766)
F: 27767916----T: 27770521 	 St: 0 Sz: 4096 	 Sm: 0 	 T: device_sync(1.758947)
F: 27767916----T: 27828752 	 St: 0 Sz: 520192 	 Sm: 0 	 T: device_sync(41.077652)
F: 27831357----T: 27833962 	 St: 0 Sz: 4096 	 Sm: 0 	 T: device_sync(1.758947)
F: 27831357----T: 27848458 	 St: 0 Sz: 139264 	 Sm: 0 	 T: device_sync(11.546927)
Tot_prefetch_time: 0(cycle), 0.000000(us)
Tot_kernel_exec_time: 18548145(cycle), 12524.067383(us)
Tot_kernel_exec_time_and_fault_time: 441677250(cycle), 298229.062500(us)
Tot_memcpy_h2d_time: 18187081(cycle), 12280.270508(us)
Tot_memcpy_d2h_time: 0(cycle), 0.000000(us)
Tot_memcpy_time: 18187081(cycle), 12280.270508(us)
Tot_devicesync_time: 416918(cycle), 281.511139(us)
Tot_writeback_time: 17909375(cycle), 12092.758789(us)
Tot_rdma_time: 0(cycle), 0.000000(us)
Tot_memcpy_d2h_sync_wb_time: 18326293(cycle), 12374.268555(us)
GPGPU-Sim: *** exit detected ***
