

        *** GPGPU-Sim Simulator Version 3.2.2  [build gpgpu-sim_git-commit-031156e66de9d631709a7db882a973ad8f0cec52_modified_1] ***


GPGPU-Sim PTX: simulation mode 0 (can change with PTX_SIM_MODE_FUNC environment variable:
               1=functional simulation only, 0=detailed performance simulator)
GPGPU-Sim: Configuration options:

-network_mode                           1 # Interconnection network mode
-inter_config_file   config_fermi_islip.icnt # Interconnection network config file
-gpgpu_ptx_use_cuobjdump                    1 # Use cuobjdump to extract ptx and sass from binaries
-gpgpu_experimental_lib_support                    0 # Try to extract code from cuda libraries [Broken because of unknown cudaGetExportTable]
-gpgpu_ptx_convert_to_ptxplus                    0 # Convert SASS (native ISA) to ptxplus and run ptxplus
-gpgpu_ptx_force_max_capability                   20 # Force maximum compute capability
-gpgpu_ptx_inst_debug_to_file                    0 # Dump executed instructions' debug information to file
-gpgpu_ptx_inst_debug_file       inst_debug.txt # Executed instructions' debug output file
-gpgpu_ptx_inst_debug_thread_uid                    1 # Thread UID for executed instructions' debug output
-gpgpu_simd_model                       1 # 1 = post-dominator
-gpgpu_shader_core_pipeline              2048:32 # shader core pipeline config, i.e., {<nthread>:<warpsize>}
-gpgpu_tex_cache:l1  16:128:24,L:R:m:N:L,F:128:4,128:2 # per-shader L1 texture cache  (READ-ONLY) config  {<nsets>:<bsize>:<assoc>,<rep>:<wr>:<alloc>:<wr_alloc>,<mshr>:<N>:<merge>,<mq>:<rf>}
-gpgpu_const_cache:l1 128:64:2,L:R:f:N:L,A:2:64,4 # per-shader L1 constant memory cache  (READ-ONLY) config  {<nsets>:<bsize>:<assoc>,<rep>:<wr>:<alloc>:<wr_alloc>,<mshr>:<N>:<merge>,<mq>} 
-gpgpu_cache:il1     8:128:4,L:R:f:N:L,A:2:48,4 # shader L1 instruction cache config  {<nsets>:<bsize>:<assoc>,<rep>:<wr>:<alloc>:<wr_alloc>,<mshr>:<N>:<merge>,<mq>} 
-gpgpu_cache:dl1     64:128:6,L:L:m:N:H,A:128:8,8 # per-shader L1 data cache config  {<nsets>:<bsize>:<assoc>,<rep>:<wr>:<alloc>:<wr_alloc>,<mshr>:<N>:<merge>,<mq> | none}
-gpgpu_cache:dl1PrefL1                 none # per-shader L1 data cache config  {<nsets>:<bsize>:<assoc>,<rep>:<wr>:<alloc>:<wr_alloc>,<mshr>:<N>:<merge>,<mq> | none}
-gpgpu_cache:dl1PrefShared                 none # per-shader L1 data cache config  {<nsets>:<bsize>:<assoc>,<rep>:<wr>:<alloc>:<wr_alloc>,<mshr>:<N>:<merge>,<mq> | none}
-gmem_skip_L1D                          1 # global memory access skip L1D cache (implements -Xptxas -dlcm=cg, default=no skip)
-gpgpu_perfect_mem                      0 # enable perfect memory mode (no cache miss)
-n_regfile_gating_group                    4 # group of lanes that should be read/written together)
-gpgpu_clock_gated_reg_file                    0 # enable clock gated reg file for power calculations
-gpgpu_clock_gated_lanes                    0 # enable clock gated lanes for power calculations
-gpgpu_shader_registers                65536 # Number of registers per shader core. Limits number of concurrent CTAs. (default 8192)
-gpgpu_shader_cta                      32 # Maximum number of concurrent CTAs in shader (default 8)
-gpgpu_num_cta_barriers                   16 # Maximum number of named barriers per CTA (default 16)
-gpgpu_n_clusters                      28 # number of processing clusters
-gpgpu_n_cores_per_cluster                    1 # number of simd cores per cluster
-gpgpu_n_cluster_ejection_buffer_size                    8 # number of packets in ejection buffer
-gpgpu_n_ldst_response_buffer_size                    2 # number of response packets in ld/st unit ejection buffer
-gpgpu_shmem_size                   16384 # Size of shared memory per shader core (default 16kB)
-gpgpu_shmem_size                   98304 # Size of shared memory per shader core (default 16kB)
-gpgpu_shmem_size_PrefL1                16384 # Size of shared memory per shader core (default 16kB)
-gpgpu_shmem_size_PrefShared                16384 # Size of shared memory per shader core (default 16kB)
-gpgpu_shmem_num_banks                   32 # Number of banks in the shared memory in each shader core (default 16)
-gpgpu_shmem_limited_broadcast                    0 # Limit shared memory to do one broadcast per cycle (default on)
-gpgpu_shmem_warp_parts                    1 # Number of portions a warp is divided into for shared memory bank conflict check 
-gpgpu_warpdistro_shader                   -1 # Specify which shader core to collect the warp size distribution from
-gpgpu_warp_issue_shader                    0 # Specify which shader core to collect the warp issue distribution from
-gpgpu_local_mem_map                    1 # Mapping from local memory space address to simulated GPU physical address space (default = enabled)
-gpgpu_num_reg_banks                   32 # Number of register banks (default = 8)
-gpgpu_reg_bank_use_warp_id                    0 # Use warp ID in mapping registers to banks (default = off)
-gpgpu_operand_collector_num_units_sp                   20 # number of collector units (default = 4)
-gpgpu_operand_collector_num_units_sfu                    4 # number of collector units (default = 4)
-gpgpu_operand_collector_num_units_mem                    8 # number of collector units (default = 2)
-gpgpu_operand_collector_num_units_gen                    0 # number of collector units (default = 0)
-gpgpu_operand_collector_num_in_ports_sp                    4 # number of collector unit in ports (default = 1)
-gpgpu_operand_collector_num_in_ports_sfu                    1 # number of collector unit in ports (default = 1)
-gpgpu_operand_collector_num_in_ports_mem                    1 # number of collector unit in ports (default = 1)
-gpgpu_operand_collector_num_in_ports_gen                    0 # number of collector unit in ports (default = 0)
-gpgpu_operand_collector_num_out_ports_sp                    4 # number of collector unit in ports (default = 1)
-gpgpu_operand_collector_num_out_ports_sfu                    1 # number of collector unit in ports (default = 1)
-gpgpu_operand_collector_num_out_ports_mem                    1 # number of collector unit in ports (default = 1)
-gpgpu_operand_collector_num_out_ports_gen                    0 # number of collector unit in ports (default = 0)
-gpgpu_coalesce_arch                   13 # Coalescing arch (default = 13, anything else is off for now)
-gpgpu_num_sched_per_core                    2 # Number of warp schedulers per core
-gpgpu_max_insn_issue_per_warp                    2 # Max number of instructions that can be issued per warp in one cycle by scheduler
-gpgpu_simt_core_sim_order                    1 # Select the simulation order of cores in a cluster (0=Fix, 1=Round-Robin)
-gpgpu_pipeline_widths        4,1,1,4,1,1,6 # Pipeline widths ID_OC_SP,ID_OC_SFU,ID_OC_MEM,OC_EX_SP,OC_EX_SFU,OC_EX_MEM,EX_WB
-gpgpu_num_sp_units                     4 # Number of SP units (default=1)
-gpgpu_num_sfu_units                    1 # Number of SF units (default=1)
-gpgpu_num_mem_units                    1 # Number if ldst units (default=1) WARNING: not hooked up to anything
-gpgpu_scheduler                      gto # Scheduler configuration: < lrr | gto | two_level_active > If two_level_active:<num_active_warps>:<inner_prioritization>:<outer_prioritization>For complete list of prioritization values see shader.h enum scheduler_prioritization_typeDefault: gto
-gpgpu_concurrent_kernel_sm                    0 # Support concurrent kernels on a SM (default = disabled)
-tlb_size                            4096 # Number of tlb entries per SM.
-gpgpu_dram_scheduler                    1 # 0 = fifo, 1 = FR-FCFS (defaul)
-gpgpu_dram_partition_queues              8:8:8:8 # i2$:$2d:d2$:$2i
-l2_ideal                               0 # Use a ideal L2 cache that always hit
-gpgpu_cache:dl2     64:128:16,L:B:m:W:L,A:1024:1024,4:0,32 # unified banked L2 data cache config  {<nsets>:<bsize>:<assoc>,<rep>:<wr>:<alloc>:<wr_alloc>,<mshr>:<N>:<merge>,<mq>}
-gpgpu_cache:dl2_texture_only                    0 # L2 cache used for texture only
-gpgpu_n_mem                           11 # number of memory modules (e.g. memory controllers) in gpu
-gpgpu_n_sub_partition_per_mchannel                    2 # number of memory subpartition in each memory module
-gpgpu_n_mem_per_ctrlr                    1 # number of memory chips per memory controller
-gpgpu_memlatency_stat                   14 # track and display latency statistics 0x2 enables MC, 0x4 enables queue logs
-gpgpu_frfcfs_dram_sched_queue_size                   64 # 0 = unlimited (default); # entries per chip
-gpgpu_dram_return_queue_size                  116 # 0 = unlimited (default); # entries per chip
-gpgpu_dram_buswidth                    4 # default = 4 bytes (8 bytes per cycle at DDR)
-gpgpu_dram_burst_length                    8 # Burst length of each DRAM request (default = 4 data bus cycle)
-dram_data_command_freq_ratio                    4 # Frequency ratio between DRAM data bus and command bus (default = 2 times, i.e. DDR)
-gpgpu_dram_timing_opt nbk=16:CCD=2:RRD=6:RCD=12:RAS=28:RP=12:RC=40: CL=12:WL=4:CDLR=5:WR=12:nbkgrp=1:CCDL=0:RTPL=0 # DRAM timing parameters = {nbk:tCCD:tRRD:tRCD:tRAS:tRP:tRC:CL:WL:tCDLR:tWR:nbkgrp:tCCDL:tRTPL}
-rop_latency                          120 # ROP queue latency (default 85)
-dram_latency                         100 # DRAM latency (default 30)
-gpgpu_mem_addr_mapping dramid@8;00000000.00000000.00000000.00000000.0000RRRR.RRRRRRRR.RBBBCCCC.BCCSSSSS # mapping memory address to dram model {dramid@<start bit>;<memory address map>}
-gpgpu_mem_addr_test                    0 # run sweep test to check address mapping for aliased address
-gpgpu_mem_address_mask                    1 # 0 = old addressing mask, 1 = new addressing mask, 2 = new add. mask + flipped bank sel and chip sel bits
-gpuwattch_xml_file  gpuwattch_geforcegtx1080ti.xml # GPUWattch XML file
-power_simulation_enabled                    1 # Turn on power simulator (1=On, 0=Off)
-power_per_cycle_dump                    0 # Dump detailed power output each cycle
-power_trace_enabled                    0 # produce a file for the power trace (1=On, 0=Off)
-power_trace_zlevel                     6 # Compression level of the power trace output log (0=no comp, 9=highest)
-steady_power_levels_enabled                    0 # produce a file for the steady power levels (1=On, 0=Off)
-steady_state_definition                  8:4 # allowed deviation:number of samples
-gpgpu_max_cycle                        0 # terminates gpu simulation early (0 = no limit)
-gpgpu_max_insn                         0 # terminates gpu simulation early (0 = no limit)
-gpgpu_max_cta                          0 # terminates gpu simulation early (0 = no limit)
-gpgpu_runtime_stat                   500 # display runtime statistics such as dram utilization {<freq>:<flag>}
-liveness_message_freq                    1 # Minimum number of seconds between simulation liveness messages (0 = always print)
-gpgpu_flush_l1_cache                    0 # Flush L1 cache at the end of each kernel call
-gpgpu_flush_l2_cache                    0 # Flush L2 cache at the end of each kernel call
-gpgpu_deadlock_detect                    0 # Stop the simulation at deadlock (1=on (default), 0=off)
-gpgpu_ptx_instruction_classification                    0 # if enabled will classify ptx instruction types per kernel (Max 255 kernels now)
-gpgpu_ptx_sim_mode                     0 # Select between Performance (default) or Functional simulation (1)
-gpgpu_clock_domains 1481.0:2962.0:1481.0:2750.0 # Clock Domain Frequencies in MhZ {<Core Clock>:<ICNT Clock>:<L2 Clock>:<DRAM Clock>}
-gpgpu_max_concurrent_kernel                    8 # maximum kernels that can run concurrently on GPU
-gpgpu_cflog_interval                    0 # Interval between each snapshot in control flow logger
-visualizer_enabled                     0 # Turn on visualizer output (1=On, 0=Off)
-visualizer_outputfile                 NULL # Specifies the output log file for visualizer
-visualizer_zlevel                      6 # Compression level of the visualizer output log (0=no comp, 9=highest)
-trace_enabled                          0 # Turn on traces
-trace_components                    none # comma seperated list of traces to enable. Complete list found in trace_streams.tup. Default none
-trace_sampling_core                    0 # The core which is printed using CORE_DPRINTF. Default 0
-trace_sampling_memory_partition                   -1 # The memory partition which is printed using MEMPART_DPRINTF. Default -1 (i.e. all)
-gddr_size                       3.6364MB # Size of GDDR in MB/GB.(GLOBAL_HEAP_START, GLOBAL_HEAP_START + gddr_size) would be used for unmanged memory, (GLOBAL_HEAP_START + gddr_size, GLOBAL_HEAP_START + gddr_size*2) would be used for managed memory. 
-page_table_walk_latency                  100 # Average page table walk latency (in core cycle).
-eviction_policy                        1 # Select page eviction policy
-reserve_accessed_page_percent                   10 # Percentage of accessed pages reserved from eviction in hope that they will be accessed in next iteration.
-percentage_of_free_page_buffer                    0 # Percentage of free page buffer to trigger the page eviction.
-page_size                            4KB # GDDR page size, only 4KB/2MB avaliable.
-pcie_bandwidth                  16.0GB/s # PCI-e bandwidth per direction, in GB/s.
-enable_nvlink                          0 # Enable nvlink 2.0, 150.0GB/s
-enable_rdma                            0 # Enable remote direct memory access
-migrate_threshold                     10 # Access counter threshold for migrating the page from cpu to gpu
-sim_prof_enable                        1 # Enable gpgpu-sim profiler
-hardware_prefetch                      1 # Select gpgpu-sim hardware prefetcher
-hwprefetch_oversub                     1 # Select gpgpu-sim hardware prefetcher under over-subscription
-page_fault_latency                 66645 # Average fault latency (in core cycle).
-enable_accurate_simulation                    0 # Enable page fault functional simulation.
-enable_ptx_file_line_stats                    1 # Turn on PTX source line statistic profiling. (1 = On)
-ptx_line_stats_filename gpgpu_inst_stats.txt # Output file for PTX source line statistics.
-gpgpu_kernel_launch_latency               222150 # Kernel launch latency in cycles. Default: 0
-gpgpu_cdp_enabled                      0 # Turn on CDP
-save_embedded_ptx                      0 # saves ptx files embedded in binary as <n>.ptx
-keep                                   0 # keep intermediate files created by GPGPU-Sim when interfacing with external programs
-gpgpu_ptx_save_converted_ptxplus                    0 # Saved converted ptxplus to a file
-ptx_opcode_latency_int         4,13,4,5,145 # Opcode latencies for integers <ADD,MAX,MUL,MAD,DIV>Default 1,1,19,25,145
-ptx_opcode_latency_fp          4,13,4,5,39 # Opcode latencies for single precision floating points <ADD,MAX,MUL,MAD,DIV>Default 1,1,1,1,30
-ptx_opcode_latency_dp         8,19,8,8,330 # Opcode latencies for double precision floating points <ADD,MAX,MUL,MAD,DIV>Default 8,8,8,8,335
-ptx_opcode_initiation_int            1,2,2,2,8 # Opcode initiation intervals for integers <ADD,MAX,MUL,MAD,DIV>Default 1,1,4,4,32
-ptx_opcode_initiation_fp            1,2,1,1,4 # Opcode initiation intervals for single precision floating points <ADD,MAX,MUL,MAD,DIV>Default 1,1,1,1,5
-ptx_opcode_initiation_dp          1,2,1,1,130 # Opcode initiation intervals for double precision floating points <ADD,MAX,MUL,MAD,DIV>Default 8,8,8,8,130
-cdp_latency         7200,8000,100,12000,1600 # CDP API latency <cudaStreamCreateWithFlags, cudaGetParameterBufferV2_init_perWarp, cudaGetParameterBufferV2_perKernel, cudaLaunchDeviceV2_init_perWarp, cudaLaunchDevicV2_perKernel>Default 7200,8000,100,12000,1600
DRAM Timing Options:
nbk                                    16 # number of banks
CCD                                     2 # column to column delay
RRD                                     6 # minimal delay between activation of rows in different banks
RCD                                    12 # row to column delay
RAS                                    28 # time needed to activate row
RP                                     12 # time needed to precharge (deactivate) row
RC                                     40 # row cycle time
CDLR                                    5 # switching from write to read (changes tWTR)
WR                                     12 # last data-in to row precharge
CL                                     12 # CAS latency
WL                                      4 # Write latency
nbkgrp                                  1 # number of bank groups
CCDL                                    0 # column to column delay between accesses to different bank groups
RTPL                                    0 # read to precharge delay between accesses to different bank groups
Total number of memory sub partition = 22
addr_dec_mask[CHIP]  = 0000000000000000 	high:64 low:0
addr_dec_mask[BK]    = 0000000000007080 	high:15 low:7
addr_dec_mask[ROW]   = 000000000fff8000 	high:28 low:15
addr_dec_mask[COL]   = 0000000000000f7f 	high:12 low:0
addr_dec_mask[BURST] = 000000000000001f 	high:5 low:0
sub_partition_id_mask = 0000000000000080
GPGPU-Sim uArch: clock freqs: 1481000000.000000:2962000000.000000:1481000000.000000:2750000000.000000
GPGPU-Sim uArch: clock periods: 0.00000000067521944632:0.00000000033760972316:0.00000000067521944632:0.00000000036363636364
*** Initializing Memory Statistics ***
GPGPU-Sim uArch: interconnect node map (shaderID+MemID to icntID)
GPGPU-Sim uArch: Memory nodes ID start from index: 28
GPGPU-Sim uArch:    0   1   2   3   4   5   6
GPGPU-Sim uArch:    7   8   9  10  11  12  13
GPGPU-Sim uArch:   14  15  16  17  18  19  20
GPGPU-Sim uArch:   21  22  23  24  25  26  27
GPGPU-Sim uArch:   28  29  30  31  32  33  34
GPGPU-Sim uArch:   35  36  37  38  39  40  41
GPGPU-Sim uArch:   42  43  44  45  46  47  48
GPGPU-Sim uArch:   49
GPGPU-Sim uArch: interconnect node reverse map (icntID to shaderID+MemID)
GPGPU-Sim uArch: Memory nodes start from ID: 28
GPGPU-Sim uArch:    0   1   2   3   4   5   6
GPGPU-Sim uArch:    7   8   9  10  11  12  13
GPGPU-Sim uArch:   14  15  16  17  18  19  20
GPGPU-Sim uArch:   21  22  23  24  25  26  27
GPGPU-Sim uArch:   28  29  30  31  32  33  34
GPGPU-Sim uArch:   35  36  37  38  39  40  41
GPGPU-Sim uArch:   42  43  44  45  46  47  48
GPGPU-Sim uArch:   49
ec5fff5efa57dcc1de1f5f5fa69e08c7  /home/gpuser/Desktop/gpgpu-sim_UVMSmart/benchmarks/Managed/stencil/main
GPGPU-Sim uArch: performance model initialization complete.
GPGPU-Sim PTX: __cudaRegisterFatBinary, fat_cubin_handle = 1, filename=default
self exe links to: /home/gpuser/Desktop/gpgpu-sim_UVMSmart/benchmarks/Managed/stencil/main
Running md5sum using "md5sum /home/gpuser/Desktop/gpgpu-sim_UVMSmart/benchmarks/Managed/stencil/main "
Parsing file _cuobjdump_complete_output_V0VPlc
######### cuobjdump parser ########
## Adding new section ELF
Adding arch: sm_20
Adding identifier: default
## Adding new section ELF
Adding arch: sm_20
Adding identifier: default
## Adding new section PTX
Adding ptx filename: _cuobjdump_1.ptx
Adding arch: sm_20
Adding identifier: default
## Adding new section ELF
Adding arch: sm_20
Adding identifier: default
## Adding new section PTX
Adding ptx filename: _cuobjdump_2.ptx
Adding arch: sm_20
Adding identifier: default
Done parsing!!!
GPGPU-Sim PTX: __cudaRegisterFatBinary, fat_cubin_handle = 2, filename=default
GPGPU-Sim PTX: __cudaRegisterFunction _Z24block2D_hybrid_coarsen_xffPfS_iii : hostFun 0x0x401496, fat_cubin_handle = 2
GPGPU-Sim PTX: allocating shared region for "sh_A0" from 0x0 to 0x0 (shared memory space)
GPGPU-Sim PTX: instruction assembly for function '_Z24block2D_hybrid_coarsen_xffPfS_iii'...   done.
GPGPU-Sim PTX: finding reconvergence points for '_Z24block2D_hybrid_coarsen_xffPfS_iii'...
GPGPU-Sim PTX: Finding dominators for '_Z24block2D_hybrid_coarsen_xffPfS_iii'...
GPGPU-Sim PTX: Finding immediate dominators for '_Z24block2D_hybrid_coarsen_xffPfS_iii'...
GPGPU-Sim PTX: Finding postdominators for '_Z24block2D_hybrid_coarsen_xffPfS_iii'...
GPGPU-Sim PTX: Finding immediate postdominators for '_Z24block2D_hybrid_coarsen_xffPfS_iii'...
GPGPU-Sim PTX: pre-decoding instructions for '_Z24block2D_hybrid_coarsen_xffPfS_iii'...
GPGPU-Sim PTX: reconvergence points for _Z24block2D_hybrid_coarsen_xffPfS_iii...
GPGPU-Sim PTX:  1 (potential) branch divergence @  PC=0x170 (_2.ptx:82) @!%p13 bra BB0_2;
GPGPU-Sim PTX:    immediate post dominator      @  PC=0x200 (_2.ptx:104) mov.f32 %f64, %f69;
GPGPU-Sim PTX:  2 (potential) branch divergence @  PC=0x178 (_2.ptx:83) bra.uni BB0_1;
GPGPU-Sim PTX:    immediate post dominator      @  PC=0x180 (_2.ptx:86) mad.lo.s32 %r33, %r3, %r6, %r1;
GPGPU-Sim PTX:  3 (potential) branch divergence @  PC=0x228 (_2.ptx:109) @!%p16 bra BB0_4;
GPGPU-Sim PTX:    immediate post dominator      @  PC=0x2b0 (_2.ptx:130) mov.f32 %f67, %f68;
GPGPU-Sim PTX:  4 (potential) branch divergence @  PC=0x230 (_2.ptx:110) bra.uni BB0_3;
GPGPU-Sim PTX:    immediate post dominator      @  PC=0x238 (_2.ptx:113) mad.lo.s32 %r58, %r3, %r6, %r2;
GPGPU-Sim PTX:  5 (potential) branch divergence @  PC=0x2d0 (_2.ptx:134) @%p17 bra BB0_33;
GPGPU-Sim PTX:    immediate post dominator      @  PC=0x868 (_2.ptx:370) ret;
GPGPU-Sim PTX:  6 (potential) branch divergence @  PC=0x300 (_2.ptx:143) @!%p13 bra BB0_8;
GPGPU-Sim PTX:    immediate post dominator      @  PC=0x348 (_2.ptx:156) @!%p5 bra BB0_19;
GPGPU-Sim PTX:  7 (potential) branch divergence @  PC=0x308 (_2.ptx:144) bra.uni BB0_7;
GPGPU-Sim PTX:    immediate post dominator      @  PC=0x310 (_2.ptx:147) add.s32 %r75, %r273, 1;
GPGPU-Sim PTX:  8 (potential) branch divergence @  PC=0x348 (_2.ptx:156) @!%p5 bra BB0_19;
GPGPU-Sim PTX:    immediate post dominator      @  PC=0x590 (_2.ptx:251) @!%p16 bra BB0_21;
GPGPU-Sim PTX:  9 (potential) branch divergence @  PC=0x350 (_2.ptx:157) bra.uni BB0_9;
GPGPU-Sim PTX:    immediate post dominator      @  PC=0x358 (_2.ptx:160) add.s32 %r89, %r13, -1;
GPGPU-Sim PTX: 10 (potential) branch divergence @  PC=0x368 (_2.ptx:162) @%p21 bra BB0_11;
GPGPU-Sim PTX:    immediate post dominator      @  PC=0x3e8 (_2.ptx:184) setp.eq.s32%p22, %r15, 0;
GPGPU-Sim PTX: 11 (potential) branch divergence @  PC=0x370 (_2.ptx:163) bra.uni BB0_10;
GPGPU-Sim PTX:    immediate post dominator      @  PC=0x3b8 (_2.ptx:176) shl.b32 %r92, %r11, 1;
GPGPU-Sim PTX: 12 (potential) branch divergence @  PC=0x3b0 (_2.ptx:173) bra.uni BB0_12;
GPGPU-Sim PTX:    immediate post dominator      @  PC=0x3e8 (_2.ptx:184) setp.eq.s32%p22, %r15, 0;
GPGPU-Sim PTX: 13 (potential) branch divergence @  PC=0x3f0 (_2.ptx:185) @%p22 bra BB0_14;
GPGPU-Sim PTX:    immediate post dominator      @  PC=0x470 (_2.ptx:207) setp.eq.s32%p23, %r12, 0;
GPGPU-Sim PTX: 14 (potential) branch divergence @  PC=0x3f8 (_2.ptx:186) bra.uni BB0_13;
GPGPU-Sim PTX:    immediate post dominator      @  PC=0x440 (_2.ptx:199) shl.b32 %r111, %r11, 1;
GPGPU-Sim PTX: 15 (potential) branch divergence @  PC=0x438 (_2.ptx:196) bra.uni BB0_15;
GPGPU-Sim PTX:    immediate post dominator      @  PC=0x470 (_2.ptx:207) setp.eq.s32%p23, %r12, 0;
GPGPU-Sim PTX: 16 (potential) branch divergence @  PC=0x478 (_2.ptx:208) @%p23 bra BB0_17;
GPGPU-Sim PTX:    immediate post dominator      @  PC=0x4f0 (_2.ptx:229) mad.lo.s32 %r149, %r273, %r7, %r3;
GPGPU-Sim PTX: 17 (potential) branch divergence @  PC=0x480 (_2.ptx:209) bra.uni BB0_16;
GPGPU-Sim PTX:    immediate post dominator      @  PC=0x4c8 (_2.ptx:222) shl.b32 %r129, %r11, 1;
GPGPU-Sim PTX: 18 (potential) branch divergence @  PC=0x4c0 (_2.ptx:219) bra.uni BB0_18;
GPGPU-Sim PTX:    immediate post dominator      @  PC=0x4f0 (_2.ptx:229) mad.lo.s32 %r149, %r273, %r7, %r3;
GPGPU-Sim PTX: 19 (potential) branch divergence @  PC=0x590 (_2.ptx:251) @!%p16 bra BB0_21;
GPGPU-Sim PTX:    immediate post dominator      @  PC=0x5d8 (_2.ptx:264) @!%p4 bra BB0_32;
GPGPU-Sim PTX: 20 (potential) branch divergence @  PC=0x598 (_2.ptx:252) bra.uni BB0_20;
GPGPU-Sim PTX:    immediate post dominator      @  PC=0x5a0 (_2.ptx:255) add.s32 %r168, %r273, 1;
GPGPU-Sim PTX: 21 (potential) branch divergence @  PC=0x5d8 (_2.ptx:264) @!%p4 bra BB0_32;
GPGPU-Sim PTX:    immediate post dominator      @  PC=0x820 (_2.ptx:359) bar.sync 0;
GPGPU-Sim PTX: 22 (potential) branch divergence @  PC=0x5e0 (_2.ptx:265) bra.uni BB0_22;
GPGPU-Sim PTX:    immediate post dominator      @  PC=0x5e8 (_2.ptx:268) add.s32 %r183, %r13, -1;
GPGPU-Sim PTX: 23 (potential) branch divergence @  PC=0x5f8 (_2.ptx:270) @%p27 bra BB0_24;
GPGPU-Sim PTX:    immediate post dominator      @  PC=0x678 (_2.ptx:292) setp.eq.s32%p28, %r15, 0;
GPGPU-Sim PTX: 24 (potential) branch divergence @  PC=0x600 (_2.ptx:271) bra.uni BB0_23;
GPGPU-Sim PTX:    immediate post dominator      @  PC=0x648 (_2.ptx:284) shl.b32 %r186, %r11, 1;
GPGPU-Sim PTX: 25 (potential) branch divergence @  PC=0x640 (_2.ptx:281) bra.uni BB0_25;
GPGPU-Sim PTX:    immediate post dominator      @  PC=0x678 (_2.ptx:292) setp.eq.s32%p28, %r15, 0;
GPGPU-Sim PTX: 26 (potential) branch divergence @  PC=0x680 (_2.ptx:293) @%p28 bra BB0_27;
GPGPU-Sim PTX:    immediate post dominator      @  PC=0x700 (_2.ptx:315) shl.b32 %r228, %r11, 1;
GPGPU-Sim PTX: 27 (potential) branch divergence @  PC=0x688 (_2.ptx:294) bra.uni BB0_26;
GPGPU-Sim PTX:    immediate post dominator      @  PC=0x6d0 (_2.ptx:307) shl.b32 %r207, %r11, 1;
GPGPU-Sim PTX: 28 (potential) branch divergence @  PC=0x6c8 (_2.ptx:304) bra.uni BB0_28;
GPGPU-Sim PTX:    immediate post dominator      @  PC=0x700 (_2.ptx:315) shl.b32 %r228, %r11, 1;
GPGPU-Sim PTX: 29 (potential) branch divergence @  PC=0x718 (_2.ptx:318) @%p29 bra BB0_30;
GPGPU-Sim PTX:    immediate post dominator      @  PC=0x788 (_2.ptx:338) mad.lo.s32 %r253, %r273, %r7, %r3;
GPGPU-Sim PTX: 30 (potential) branch divergence @  PC=0x720 (_2.ptx:319) bra.uni BB0_29;
GPGPU-Sim PTX:    immediate post dominator      @  PC=0x768 (_2.ptx:332) mad.lo.s32 %r235, %r228, %r15, %r19;
GPGPU-Sim PTX: 31 (potential) branch divergence @  PC=0x760 (_2.ptx:329) bra.uni BB0_31;
GPGPU-Sim PTX:    immediate post dominator      @  PC=0x788 (_2.ptx:338) mad.lo.s32 %r253, %r273, %r7, %r3;
GPGPU-Sim PTX: 32 (potential) branch divergence @  PC=0x860 (_2.ptx:367) @%p30 bra BB0_6;
GPGPU-Sim PTX:    immediate post dominator      @  PC=0x868 (_2.ptx:370) ret;
GPGPU-Sim PTX: ... end of reconvergence points for _Z24block2D_hybrid_coarsen_xffPfS_iii
GPGPU-Sim PTX: ... done pre-decoding instructions for '_Z24block2D_hybrid_coarsen_xffPfS_iii'.
GPGPU-Sim PTX: finished parsing EMBEDDED .ptx file _2.ptx
Adding _cuobjdump_1.ptx with cubin handle 2
GPGPU-Sim PTX: extracting embedded .ptx to temporary file "_ptx_MGGh6k"
Running: cat _ptx_MGGh6k | sed 's/.version 1.5/.version 1.4/' | sed 's/, texmode_independent//' | sed 's/\(\.extern \.const\[1\] .b8 \w\+\)\[\]/\1\[1\]/' | sed 's/const\[.\]/const\[0\]/g' > _ptx2_yzdOQt
GPGPU-Sim PTX: generating ptxinfo using "$CUDA_INSTALL_PATH/bin/ptxas --gpu-name=sm_20 -v _ptx2_yzdOQt --output-file  /dev/null 2> _ptx_MGGh6kinfo"
GPGPU-Sim PTX: Kernel '_Z24block2D_hybrid_coarsen_xffPfS_iii' : regs=20, lmem=0, smem=0, cmem=68
GPGPU-Sim PTX: removing ptxinfo using "rm -f _ptx_MGGh6k _ptx2_yzdOQt _ptx_MGGh6kinfo"
GPGPU-Sim PTX: loading globals with explicit initializers... 
GPGPU-Sim PTX: finished loading globals (0 bytes total).
GPGPU-Sim PTX: loading constants with explicit initializers...  done.
CUDA accelerated 7 points stencil codes****
Original version by Li-Wen Chang <lchang20@illinois.edu> and I-Jui Sung<sung10@illinois.edu>
This version maintained by Chris Rodrigues  ***********

GPGPU-Sim PTX: cudaLaunch for 0x0x401496 (mode=performance simulation) on stream 0
GPGPU-Sim PTX: pushing kernel '_Z24block2D_hybrid_coarsen_xffPfS_iii' to stream 0, gridDim= (2,32,1) blockDim = (32,4,1) 
GPGPU-Sim uArch: Shader 1 bind to kernel 1 '_Z24block2D_hybrid_coarsen_xffPfS_iii'
GPGPU-Sim uArch: CTA/core = 16, limited by: threads
GPGPU-Sim uArch: Shader 2 bind to kernel 1 '_Z24block2D_hybrid_coarsen_xffPfS_iii'
GPGPU-Sim uArch: Shader 3 bind to kernel 1 '_Z24block2D_hybrid_coarsen_xffPfS_iii'
GPGPU-Sim uArch: Shader 4 bind to kernel 1 '_Z24block2D_hybrid_coarsen_xffPfS_iii'
GPGPU-Sim uArch: Shader 5 bind to kernel 1 '_Z24block2D_hybrid_coarsen_xffPfS_iii'
GPGPU-Sim uArch: Shader 6 bind to kernel 1 '_Z24block2D_hybrid_coarsen_xffPfS_iii'
GPGPU-Sim uArch: Shader 7 bind to kernel 1 '_Z24block2D_hybrid_coarsen_xffPfS_iii'
GPGPU-Sim uArch: Shader 8 bind to kernel 1 '_Z24block2D_hybrid_coarsen_xffPfS_iii'
GPGPU-Sim uArch: Shader 9 bind to kernel 1 '_Z24block2D_hybrid_coarsen_xffPfS_iii'
GPGPU-Sim uArch: Shader 10 bind to kernel 1 '_Z24block2D_hybrid_coarsen_xffPfS_iii'
GPGPU-Sim uArch: Shader 11 bind to kernel 1 '_Z24block2D_hybrid_coarsen_xffPfS_iii'
GPGPU-Sim uArch: Shader 12 bind to kernel 1 '_Z24block2D_hybrid_coarsen_xffPfS_iii'
GPGPU-Sim uArch: Shader 13 bind to kernel 1 '_Z24block2D_hybrid_coarsen_xffPfS_iii'
GPGPU-Sim uArch: Shader 14 bind to kernel 1 '_Z24block2D_hybrid_coarsen_xffPfS_iii'
GPGPU-Sim uArch: Shader 15 bind to kernel 1 '_Z24block2D_hybrid_coarsen_xffPfS_iii'
GPGPU-Sim uArch: Shader 16 bind to kernel 1 '_Z24block2D_hybrid_coarsen_xffPfS_iii'
GPGPU-Sim uArch: Shader 17 bind to kernel 1 '_Z24block2D_hybrid_coarsen_xffPfS_iii'
GPGPU-Sim uArch: Shader 18 bind to kernel 1 '_Z24block2D_hybrid_coarsen_xffPfS_iii'
GPGPU-Sim uArch: Shader 19 bind to kernel 1 '_Z24block2D_hybrid_coarsen_xffPfS_iii'
GPGPU-Sim uArch: Shader 20 bind to kernel 1 '_Z24block2D_hybrid_coarsen_xffPfS_iii'
GPGPU-Sim uArch: Shader 21 bind to kernel 1 '_Z24block2D_hybrid_coarsen_xffPfS_iii'
GPGPU-Sim uArch: Shader 22 bind to kernel 1 '_Z24block2D_hybrid_coarsen_xffPfS_iii'
GPGPU-Sim uArch: Shader 23 bind to kernel 1 '_Z24block2D_hybrid_coarsen_xffPfS_iii'
GPGPU-Sim uArch: Shader 24 bind to kernel 1 '_Z24block2D_hybrid_coarsen_xffPfS_iii'
GPGPU-Sim uArch: Shader 25 bind to kernel 1 '_Z24block2D_hybrid_coarsen_xffPfS_iii'
GPGPU-Sim uArch: Shader 26 bind to kernel 1 '_Z24block2D_hybrid_coarsen_xffPfS_iii'
GPGPU-Sim uArch: Shader 27 bind to kernel 1 '_Z24block2D_hybrid_coarsen_xffPfS_iii'
GPGPU-Sim uArch: Shader 0 bind to kernel 1 '_Z24block2D_hybrid_coarsen_xffPfS_iii'
Destroy streams for kernel 1: size 0
kernel_name = _Z24block2D_hybrid_coarsen_xffPfS_iii 
kernel_launch_uid = 1 
gpu_sim_cycle = 561608
gpu_sim_insn = 28848876
gpu_ipc =      51.3684
gpu_tot_sim_cycle = 783758
gpu_tot_sim_insn = 28848876
gpu_tot_ipc =      36.8084
gpu_tot_issued_cta = 64
max_total_param_size = 0
gpu_stall_dramfull = 94666
gpu_stall_icnt2sh    = 2168
partiton_reqs_in_parallel = 12260710
partiton_reqs_in_parallel_total    = 0
partiton_level_parallism =      21.8314
partiton_level_parallism_total  =      15.6435
partiton_reqs_in_parallel_util = 12260710
partiton_reqs_in_parallel_util_total    = 0
gpu_sim_cycle_parition_util = 560633
gpu_tot_sim_cycle_parition_util    = 0
partiton_level_parallism_util =      21.8694
partiton_level_parallism_util_total  =      21.8694
partiton_replys_in_parallel = 47008
partiton_replys_in_parallel_total    = 0
L2_BW  =       7.9337 GB/Sec
L2_BW_total  =       5.6849 GB/Sec
gpu_total_sim_rate=19950

========= Core cache stats =========
L1I_cache:
	L1I_total_cache_accesses = 579228
	L1I_total_cache_misses = 3000
	L1I_total_cache_miss_rate = 0.0052
	L1I_total_cache_pending_hits = 0
	L1I_total_cache_reservation_fails = 0
L1D_cache:
	L1D_cache_core[0]: Access = 0, Miss = 0, Miss_rate = -nan, Pending_hits = 0, Reservation_fails = 0
	L1D_cache_core[1]: Access = 0, Miss = 0, Miss_rate = -nan, Pending_hits = 0, Reservation_fails = 0
	L1D_cache_core[2]: Access = 0, Miss = 0, Miss_rate = -nan, Pending_hits = 0, Reservation_fails = 0
	L1D_cache_core[3]: Access = 0, Miss = 0, Miss_rate = -nan, Pending_hits = 0, Reservation_fails = 0
	L1D_cache_core[4]: Access = 0, Miss = 0, Miss_rate = -nan, Pending_hits = 0, Reservation_fails = 0
	L1D_cache_core[5]: Access = 0, Miss = 0, Miss_rate = -nan, Pending_hits = 0, Reservation_fails = 0
	L1D_cache_core[6]: Access = 0, Miss = 0, Miss_rate = -nan, Pending_hits = 0, Reservation_fails = 0
	L1D_cache_core[7]: Access = 0, Miss = 0, Miss_rate = -nan, Pending_hits = 0, Reservation_fails = 0
	L1D_cache_core[8]: Access = 0, Miss = 0, Miss_rate = -nan, Pending_hits = 0, Reservation_fails = 0
	L1D_cache_core[9]: Access = 0, Miss = 0, Miss_rate = -nan, Pending_hits = 0, Reservation_fails = 0
	L1D_cache_core[10]: Access = 0, Miss = 0, Miss_rate = -nan, Pending_hits = 0, Reservation_fails = 0
	L1D_cache_core[11]: Access = 0, Miss = 0, Miss_rate = -nan, Pending_hits = 0, Reservation_fails = 0
	L1D_cache_core[12]: Access = 0, Miss = 0, Miss_rate = -nan, Pending_hits = 0, Reservation_fails = 0
	L1D_cache_core[13]: Access = 0, Miss = 0, Miss_rate = -nan, Pending_hits = 0, Reservation_fails = 0
	L1D_cache_core[14]: Access = 0, Miss = 0, Miss_rate = -nan, Pending_hits = 0, Reservation_fails = 0
	L1D_cache_core[15]: Access = 0, Miss = 0, Miss_rate = -nan, Pending_hits = 0, Reservation_fails = 0
	L1D_cache_core[16]: Access = 0, Miss = 0, Miss_rate = -nan, Pending_hits = 0, Reservation_fails = 0
	L1D_cache_core[17]: Access = 0, Miss = 0, Miss_rate = -nan, Pending_hits = 0, Reservation_fails = 0
	L1D_cache_core[18]: Access = 0, Miss = 0, Miss_rate = -nan, Pending_hits = 0, Reservation_fails = 0
	L1D_cache_core[19]: Access = 0, Miss = 0, Miss_rate = -nan, Pending_hits = 0, Reservation_fails = 0
	L1D_cache_core[20]: Access = 0, Miss = 0, Miss_rate = -nan, Pending_hits = 0, Reservation_fails = 0
	L1D_cache_core[21]: Access = 0, Miss = 0, Miss_rate = -nan, Pending_hits = 0, Reservation_fails = 0
	L1D_cache_core[22]: Access = 0, Miss = 0, Miss_rate = -nan, Pending_hits = 0, Reservation_fails = 0
	L1D_cache_core[23]: Access = 0, Miss = 0, Miss_rate = -nan, Pending_hits = 0, Reservation_fails = 0
	L1D_cache_core[24]: Access = 0, Miss = 0, Miss_rate = -nan, Pending_hits = 0, Reservation_fails = 0
	L1D_cache_core[25]: Access = 0, Miss = 0, Miss_rate = -nan, Pending_hits = 0, Reservation_fails = 0
	L1D_cache_core[26]: Access = 0, Miss = 0, Miss_rate = -nan, Pending_hits = 0, Reservation_fails = 0
	L1D_cache_core[27]: Access = 0, Miss = 0, Miss_rate = -nan, Pending_hits = 0, Reservation_fails = 0
	L1D_total_cache_accesses = 0
	L1D_total_cache_misses = 0
	L1D_total_cache_pending_hits = 0
	L1D_total_cache_reservation_fails = 0
	L1D_cache_data_port_util = 0.000
	L1D_cache_fill_port_util = 0.000
L1C_cache:
	L1C_total_cache_accesses = 1792
	L1C_total_cache_misses = 1632
	L1C_total_cache_miss_rate = 0.9107
	L1C_total_cache_pending_hits = 0
	L1C_total_cache_reservation_fails = 1444
L1T_cache:
	L1T_total_cache_accesses = 0
	L1T_total_cache_misses = 0
	L1T_total_cache_pending_hits = 0
	L1T_total_cache_reservation_fails = 0

Total_core_cache_stats:
	Total_core_cache_stats_breakdown[GLOBAL_ACC_R][HIT] = 0
	Total_core_cache_stats_breakdown[GLOBAL_ACC_R][HIT_RESERVED] = 0
	Total_core_cache_stats_breakdown[GLOBAL_ACC_R][MISS] = 0
	Total_core_cache_stats_breakdown[GLOBAL_ACC_R][RESERVATION_FAIL] = 0
	Total_core_cache_stats_breakdown[LOCAL_ACC_R][HIT] = 0
	Total_core_cache_stats_breakdown[LOCAL_ACC_R][HIT_RESERVED] = 0
	Total_core_cache_stats_breakdown[LOCAL_ACC_R][MISS] = 0
	Total_core_cache_stats_breakdown[LOCAL_ACC_R][RESERVATION_FAIL] = 0
	Total_core_cache_stats_breakdown[CONST_ACC_R][HIT] = 160
	Total_core_cache_stats_breakdown[CONST_ACC_R][HIT_RESERVED] = 0
	Total_core_cache_stats_breakdown[CONST_ACC_R][MISS] = 1632
	Total_core_cache_stats_breakdown[CONST_ACC_R][RESERVATION_FAIL] = 1444
	Total_core_cache_stats_breakdown[TEXTURE_ACC_R][HIT] = 0
	Total_core_cache_stats_breakdown[TEXTURE_ACC_R][HIT_RESERVED] = 0
	Total_core_cache_stats_breakdown[TEXTURE_ACC_R][MISS] = 0
	Total_core_cache_stats_breakdown[TEXTURE_ACC_R][RESERVATION_FAIL] = 0
	Total_core_cache_stats_breakdown[GLOBAL_ACC_W][HIT] = 0
	Total_core_cache_stats_breakdown[GLOBAL_ACC_W][HIT_RESERVED] = 0
	Total_core_cache_stats_breakdown[GLOBAL_ACC_W][MISS] = 0
	Total_core_cache_stats_breakdown[GLOBAL_ACC_W][RESERVATION_FAIL] = 0
	Total_core_cache_stats_breakdown[LOCAL_ACC_W][HIT] = 0
	Total_core_cache_stats_breakdown[LOCAL_ACC_W][HIT_RESERVED] = 0
	Total_core_cache_stats_breakdown[LOCAL_ACC_W][MISS] = 0
	Total_core_cache_stats_breakdown[LOCAL_ACC_W][RESERVATION_FAIL] = 0
	Total_core_cache_stats_breakdown[L1_WRBK_ACC][HIT] = 0
	Total_core_cache_stats_breakdown[L1_WRBK_ACC][HIT_RESERVED] = 0
	Total_core_cache_stats_breakdown[L1_WRBK_ACC][MISS] = 0
	Total_core_cache_stats_breakdown[L1_WRBK_ACC][RESERVATION_FAIL] = 0
	Total_core_cache_stats_breakdown[L2_WRBK_ACC][HIT] = 0
	Total_core_cache_stats_breakdown[L2_WRBK_ACC][HIT_RESERVED] = 0
	Total_core_cache_stats_breakdown[L2_WRBK_ACC][MISS] = 0
	Total_core_cache_stats_breakdown[L2_WRBK_ACC][RESERVATION_FAIL] = 0
	Total_core_cache_stats_breakdown[INST_ACC_R][HIT] = 576228
	Total_core_cache_stats_breakdown[INST_ACC_R][HIT_RESERVED] = 0
	Total_core_cache_stats_breakdown[INST_ACC_R][MISS] = 3000
	Total_core_cache_stats_breakdown[INST_ACC_R][RESERVATION_FAIL] = 0
	Total_core_cache_stats_breakdown[L1_WR_ALLOC_R][HIT] = 0
	Total_core_cache_stats_breakdown[L1_WR_ALLOC_R][HIT_RESERVED] = 0
	Total_core_cache_stats_breakdown[L1_WR_ALLOC_R][MISS] = 0
	Total_core_cache_stats_breakdown[L1_WR_ALLOC_R][RESERVATION_FAIL] = 0
	Total_core_cache_stats_breakdown[L2_WR_ALLOC_R][HIT] = 0
	Total_core_cache_stats_breakdown[L2_WR_ALLOC_R][HIT_RESERVED] = 0
	Total_core_cache_stats_breakdown[L2_WR_ALLOC_R][MISS] = 0
	Total_core_cache_stats_breakdown[L2_WR_ALLOC_R][RESERVATION_FAIL] = 0
	Total_core_cache_stats_breakdown[CONST_ACC_R][TOTAL_ACCESS] = 1792
	Total_core_cache_stats_breakdown[INST_ACC_R][TOTAL_ACCESS] = 579228
Shader 0 warp_id issue ditsribution:
warp_id:
0, 1, 2, 3, 4, 5, 6, 7, 
distro:
4828, 4640, 4648, 4821, 4828, 4643, 4648, 4818, 
gpgpu_n_tot_thrd_icount = 33319424
gpgpu_n_tot_w_icount = 1041232
gpgpu_n_stall_shd_mem = 191545
gpgpu_n_mem_read_local = 0
gpgpu_n_mem_write_local = 0
gpgpu_n_mem_read_global = 31384
gpgpu_n_mem_write_global = 15120
gpgpu_n_mem_texture = 0
gpgpu_n_mem_const = 28
gpgpu_n_load_insn  = 766208
gpgpu_n_store_insn = 476280
gpgpu_n_shmem_insn = 3155288
gpgpu_n_tex_insn = 0
gpgpu_n_const_mem_insn = 0
gpgpu_n_param_mem_insn = 57344
gpgpu_n_shmem_bkconflict = 0
gpgpu_n_cache_bkconflict = 0
gpgpu_n_intrawarp_mshr_merge = 0
gpgpu_n_cmem_portconflict = 1444
gpgpu_stall_shd_mem[c_mem][bk_conf] = 1444
gpgpu_stall_shd_mem[c_mem][mshr_rc] = 0
gpgpu_stall_shd_mem[c_mem][icnt_rc] = 0
gpgpu_stall_shd_mem[c_mem][data_port_stall] = 0
gpgpu_stall_shd_mem[t_mem][mshr_rc] = 0
gpgpu_stall_shd_mem[t_mem][icnt_rc] = 0
gpgpu_stall_shd_mem[t_mem][data_port_stall] = 0
gpgpu_stall_shd_mem[s_mem][bk_conf] = 0
gpgpu_stall_shd_mem[gl_mem][bk_conf] = 0
gpgpu_stall_shd_mem[gl_mem][coal_stall] = 0
gpgpu_stall_shd_mem[gl_mem][data_port_stall] = 0
gpgpu_stall_shd_mem[g_mem_ld][mshr_rc] = 0
gpgpu_stall_shd_mem[g_mem_ld][icnt_rc] = 190101
gpgpu_stall_shd_mem[g_mem_ld][wb_icnt_rc] = 0
gpgpu_stall_shd_mem[g_mem_ld][wb_rsrv_fail] = 0
gpgpu_stall_shd_mem[g_mem_st][mshr_rc] = 0
gpgpu_stall_shd_mem[g_mem_st][icnt_rc] = 0
gpgpu_stall_shd_mem[g_mem_st][wb_icnt_rc] = 0
gpgpu_stall_shd_mem[g_mem_st][wb_rsrv_fail] = 0
gpgpu_stall_shd_mem[l_mem_ld][mshr_rc] = 0
gpgpu_stall_shd_mem[l_mem_ld][icnt_rc] = 0
gpgpu_stall_shd_mem[l_mem_ld][wb_icnt_rc] = 0
gpgpu_stall_shd_mem[l_mem_ld][wb_rsrv_fail] = 0
gpgpu_stall_shd_mem[l_mem_st][mshr_rc] = 0
gpgpu_stall_shd_mem[l_mem_st][icnt_rc] = 0
gpgpu_stall_shd_mem[l_mem_ld][wb_icnt_rc] = 0
gpgpu_stall_shd_mem[l_mem_ld][wb_rsrv_fail] = 0
gpu_reg_bank_conflict_stalls = 0
Warp Occupancy Distribution:
Stall:31270	W0_Idle:8110481	W0_Scoreboard:22402283	W1:60480	W2:0	W3:0	W4:0	W5:0	W6:0	W7:0	W8:0	W9:0	W10:0	W11:0	W12:0	W13:0	W14:0	W15:0	W16:0	W17:0	W18:0	W19:0	W20:0	W21:0	W22:0	W23:0	W24:0	W25:0	W26:0	W27:0	W28:0	W29:0	W30:0	W31:408180	W32:572572
traffic_breakdown_coretomem[CONST_ACC_R] = 224 {8:28,}
traffic_breakdown_coretomem[GLOBAL_ACC_R] = 251072 {8:31384,}
traffic_breakdown_coretomem[GLOBAL_ACC_W] = 2056320 {136:15120,}
traffic_breakdown_coretomem[INST_ACC_R] = 3808 {8:476,}
traffic_breakdown_memtocore[CONST_ACC_R] = 2016 {72:28,}
traffic_breakdown_memtocore[GLOBAL_ACC_R] = 3542464 {40:7560,136:23824,}
traffic_breakdown_memtocore[GLOBAL_ACC_W] = 120960 {8:15120,}
traffic_breakdown_memtocore[INST_ACC_R] = 64736 {136:476,}
maxmrqlatency = 1872 
maxdqlatency = 0 
maxmflatency = 179194 
averagemflatency = 33057 
max_icnt2mem_latency = 178940 
max_icnt2sh_latency = 783757 
mrq_lat_table:14549 	1219 	742 	1307 	1693 	2437 	3688 	6570 	10610 	3772 	55 	0 	0 	0 	0 	0 	0 	0 	0 	0 	0 	0 	0 	0 	0 	0 	0 	0 	0 	0 	0 	0 	
dq_lat_table:0 	0 	0 	0 	0 	0 	0 	0 	0 	0 	0 	0 	0 	0 	0 	0 	0 	0 	0 	0 	0 	0 	0 	0 	0 	0 	0 	0 	0 	0 	0 	0 	
mf_lat_table:0 	0 	0 	0 	0 	0 	0 	22039 	8481 	250 	0 	58 	146 	826 	1386 	5310 	262 	7774 	0 	0 	0 	0 	0 	0 	0 	0 	0 	0 	0 	0 	0 	0 	
icnt2mem_lat_table:0 	0 	22134 	129 	19 	0 	8964 	0 	0 	0 	1 	57 	146 	826 	1386 	5310 	262 	7774 	0 	0 	0 	0 	0 	0 	
icnt2sh_lat_table:0 	0 	25449 	5840 	123 	0 	0 	0 	0 	0 	0 	0 	0 	0 	0 	0 	0 	0 	7084 	8036 	0 	0 	0 	0 	
mf_lat_pw_table:0 	0 	0 	0 	0 	0 	0 	86 	9 	0 	0 	2 	3 	6 	9 	14 	1 	14 	0 	0 	0 	0 	0 	0 	0 	0 	0 	0 	0 	0 	0 	0 	
maximum concurrent accesses to same row:
dram[0]:        32        32        32        32        32        32        32        32        32        32        32        32        32        32        32        32 
dram[1]:        32        32        32        32        32        32        32        32        32        32        32        32        32        32        32        32 
dram[2]:        32        32        32        32        32        32        32        32        32        32        32        32        32        32        32        32 
dram[3]:        32        32        32        32        32        32        32        32        32        32        32        32        32        32        32        32 
dram[4]:        32        32        32        32        32        32        32        32        32        32        32        32        32        32        32        32 
dram[5]:        32        32        32        32        32        32        32        32        32        32        32        32        32        32        32        32 
dram[6]:        32        32        32        32        32        32        32        32        32        32        32        32        32        32        32        32 
dram[7]:        32        32        32        32        32        32        32        32        32        32        32        32        32        32        32        32 
dram[8]:        32        32        32        32        32        32        32        32        32        32        32        32        32        32        32        32 
dram[9]:        32        32        32        32        32        32        32        32        32        32        32        32        32        32        32        32 
dram[10]:        32        32        32        32        32        32        32        32        32        32        32        32        32        32        32        32 
maximum service time to same row:
dram[0]:    141271    140840    138618    138030    144848    144271    143980    143412    143067    142619    143007    142508    142036    141590    141352    140928 
dram[1]:    141235    140817    138672    138109    144871    144277    143957    143470    143198    142663    142985    142432    141998    141495    141361    140840 
dram[2]:    141238    140676    138637    138055    144842    144259    143974    143426    143108    142615    142963    142548    142095    142113    141247    140843 
dram[3]:    141257    140765    138678    138087    144866    144290    143963    143464    143209    142657    142967    142445    142096    141500    141400    140899 
dram[4]:    141255    140776    138637    138057    144866    144815    144025    143481    143127    142634    142934    142428    142102    141617    141325    140845 
dram[5]:    141278    141263    138622    138059    144848    144277    143943    143373    143209    142663    143018    142495    142040    141528    141513    140988 
dram[6]:    141119    140622    138635    138052    144845    144282    143834    143308    143176    142713    142988    142493    142131    141691    141262    140906 
dram[7]:    141263    140837    138626    138049    144855    144296    143962    143636    143085    142624    143092    142613    142101    141622    141417    140935 
dram[8]:    141080    140587    138676    138115    144846    144263    143713    143248    143148    142616    142946    142395    142177    141645    141386    140930 
dram[9]:    141234    140832    138627    138042    144866    144300    143984    143504    143158    142663    143112    142540    142124    141657    141513    141001 
dram[10]:    140586    140035    138674    138112    144857    144288    143785    143263    143210    142678    142975    142982    142143    141558    141433    140889 
average row accesses per activate:
dram[0]: 23.363636 23.272728 20.500000 20.500000 21.818182 21.818182 19.500000 19.500000 21.692308 20.142857 20.571428 22.153847 17.375000 19.857143 21.416666 21.416666 
dram[1]: 23.272728 23.272728 20.500000 20.500000 21.272728 21.272728 23.250000 23.250000 18.799999 18.799999 22.153847 22.153847 17.375000 17.375000 21.416666 23.272728 
dram[2]: 22.909090 22.909090 21.000000 21.000000 21.272728 21.272728 19.928572 19.928572 20.142857 20.142857 22.153847 22.153847 17.375000 17.375000 23.272728 23.272728 
dram[3]: 19.384615 22.909090 21.000000 21.000000 21.272728 21.272728 23.250000 23.250000 20.142857 20.142857 19.200001 16.941177 18.400000 18.400000 23.272728 23.272728 
dram[4]: 22.909090 22.909090 21.000000 21.000000 21.272728 21.272728 22.750000 22.750000 24.000000 24.000000 20.571428 22.153847 17.250000 17.250000 21.416666 21.416666 
dram[5]: 19.384615 19.384615 20.666666 20.666666 21.818182 21.818182 22.750000 22.750000 24.000000 24.000000 19.200001 19.200001 19.714285 19.714285 21.416666 21.416666 
dram[6]: 23.272728 23.272728 20.666666 20.666666 21.818182 21.818182 22.750000 22.750000 24.000000 24.000000 22.153847 22.153847 17.250000 17.250000 20.916666 20.916666 
dram[7]: 23.272728 23.272728 20.583334 20.583334 21.818182 21.818182 22.750000 22.750000 22.153847 22.153847 18.799999 18.799999 18.799999 20.142857 20.916666 20.916666 
dram[8]: 23.272728 23.272728 20.583334 20.583334 21.818182 21.818182 22.916666 22.916666 22.153847 22.153847 21.692308 21.692308 17.625000 17.625000 20.916666 20.916666 
dram[9]: 22.727272 22.727272 20.916666 20.916666 21.818182 21.818182 22.916666 22.916666 24.000000 24.000000 18.799999 16.588236 20.142857 20.142857 20.916666 20.916666 
dram[10]: 22.727272 22.727272 20.916666 20.916666 21.818182 21.818182 23.000000 23.000000 24.000000 24.000000 20.142857 21.692308 15.333333 17.250000 21.416666 21.416666 
average row locality = 46642/2218 = 21.028854
number of total memory accesses made:
dram[0]:         0         0         0         0         0         0         0         0         0         0         0         0         0         0         0         0 
dram[1]:         0         0         0         0         0         0         0         0         0         0         0         0         0         0         0         0 
dram[2]:         0         0         0         0         0         0         0         0         0         0         0         0         0         0         0         0 
dram[3]:         0         0         0         0         0         0         0         0         0         0         0         0         0         0         0         0 
dram[4]:         0         0         0         0         0         0         0         0         0         0         0         0         0         0         0         0 
dram[5]:         0         0         0         0         0         0         0         0         0         0         0         0         0         0         0         0 
dram[6]:         0         0         0         0         0         0         0         0         0         0         0         0         0         0         0         0 
dram[7]:         0         0         0         0         0         0         0         0         0         0         0         0         0         0         0         0 
dram[8]:         0         0         0         0         0         0         0         0         0         0         0         0         0         0         0         0 
dram[9]:         0         0         0         0         0         0         0         0         0         0         0         0         0         0         0         0 
dram[10]:         0         0         0         0         0         0         0         0         0         0         0         0         0         0         0         0 
total accesses: 0
min_bank_accesses = 0!
min_chip_accesses = 0!
number of total read accesses:
dram[0]:       177       176       169       169       160       160       183       183       189       189       192       192       187       187       177       177 
dram[1]:       176       176       169       169       157       157       186       186       189       189       192       192       187       187       177       176 
dram[2]:       174       174       172       172       157       157       186       186       189       189       192       192       187       187       176       176 
dram[3]:       174       174       172       172       157       157       186       186       189       189       192       192       186       186       176       176 
dram[4]:       174       174       172       172       157       157       183       183       192       192       192       192       186       186       177       177 
dram[5]:       174       174       170       170       160       160       183       183       192       192       192       192       186       186       177       177 
dram[6]:       176       176       170       170       160       160       183       183       192       192       192       192       186       186       174       174 
dram[7]:       176       176       169       169       160       160       183       183       192       192       189       189       189       189       174       174 
dram[8]:       176       176       169       169       160       160       184       184       192       192       189       189       189       189       174       174 
dram[9]:       173       173       171       171       160       160       184       184       192       192       189       189       189       189       174       174 
dram[10]:       173       173       171       171       160       160       185       185       192       192       189       189       186       186       177       177 
total reads: 31522
bank skew: 192/157 = 1.22
chip skew: 2868/2864 = 1.00
number of total write accesses:
dram[0]:        80        80        77        77        80        80        90        90        93        93        96        96        91        91        80        80 
dram[1]:        80        80        77        77        77        77        93        93        93        93        96        96        91        91        80        80 
dram[2]:        78        78        80        80        77        77        93        93        93        93        96        96        91        91        80        80 
dram[3]:        78        78        80        80        77        77        93        93        93        93        96        96        90        90        80        80 
dram[4]:        78        78        80        80        77        77        90        90        96        96        96        96        90        90        80        80 
dram[5]:        78        78        78        78        80        80        90        90        96        96        96        96        90        90        80        80 
dram[6]:        80        80        78        78        80        80        90        90        96        96        96        96        90        90        77        77 
dram[7]:        80        80        78        78        80        80        90        90        96        96        93        93        93        93        77        77 
dram[8]:        80        80        78        78        80        80        91        91        96        96        93        93        93        93        77        77 
dram[9]:        77        77        80        80        80        80        91        91        96        96        93        93        93        93        77        77 
dram[10]:        77        77        80        80        80        80        91        91        96        96        93        93        90        90        80        80 
total reads: 15120
bank skew: 96/77 = 1.25
chip skew: 1376/1374 = 1.00
average mf latency per bank:
dram[0]:      28338     25857     38032     34827     44999     37519     43015     32327     29570     28726     32139     30939     33229     31450     34338     26471
dram[1]:      28416     25848     38015     34808     44629     37186     42984     32494     29575     28730     32134     30927     33429     31642     34325     26555
dram[2]:      28005     25841     37959     34708     44625     37185     42933     32443     29595     28731     32151     30954     33422     31639     34567     26664
dram[3]:      28006     25843     37940     34722     44779     37352     42988     32487     29592     28731     32324     31107     33650     31648     34580     26673
dram[4]:      27801     25634     37959     34740     44770     37336     42595     32527     29758     28907     32372     31132     33734     31633     34454     26573
dram[5]:      27791     25620     38527     35008     45170     37540     42631     32557     29779     28910     32351     31111     33703     31680     34463     26588
dram[6]:      28232     25867     38513     35014     45143     37524     42408     32358     29764     28910     32386     31149     34063     31662     34374     26382
dram[7]:      28217     25847     38552     35153     45169     37543     42399     32358     29755     28923     31966     30712     34217     31864     34308     26379
dram[8]:      28226     25856     38557     35137     45990     37505     42431     32004     29771     28922     32007     30744     33994     31835     34300     26363
dram[9]:      27836     25660     38805     35454     46026     37525     42376     31956     29785     28941     31974     30719     34014     31853     34307     26370
dram[10]:      27851     25652     38802     35436     45498     37497     42259     31854     29784     28933     31993     30737     33333     31128     34164     26354
maximum mf latency per bank:
dram[0]:     153390    153154    155802    155410    179182    155351    179148    154741    154515    154251    154695    154238    153378    153144    153187    153008
dram[1]:     152816    152594    155797    155421    179164    155493    179151    154689    154319    154022    154403    153941    153898    153518    153008    152590
dram[2]:     153328    152973    155822    155452    179194    155238    179151    154672    154485    154197    154745    154519    153286    153131    153025    152847
dram[3]:     152681    152269    155783    155399    179161    155544    179151    154631    154497    154104    154360    153887    153945    153578    152969    152552
dram[4]:     153357    152968    155817    155425    179184    155124    179145    177624    154536    154176    154622    154265    153524    153157    153095    152790
dram[5]:     152787    152415    155813    155487    179157    155467    179152    178523    154545    154155    154229    153847    154006    153766    153321    152993
dram[6]:     153547    153185    155866    155497    179182    155126    178953    154879    154479    154238    154665    154251    153454    153425    152930    152762
dram[7]:     152837    152631    155783    155393    179150    155464    179162    154540    154345    154070    154665    154309    153701    153372    153052    152825
dram[8]:     153108    152634    155929    155532    179157    155181    178953    154910    154372    153877    154416    153805    153914    153528    153174    152830
dram[9]:     152808    152537    155862    155430    179153    155537    179147    154751    154544    154288    154730    154268    153666    153246    153328    152836
dram[10]:     152962    152373    155888    155525    179163    154958    178955    154818    154438    154060    154476    153875    153961    153465    153258    152725
Memory Partition 0: 
Cache L2_bank_000:
MSHR contents

Cache L2_bank_001:
MSHR contents

In Dram Latency Queue (total = 0): 
DRAM[0]: 16 bks, busW=4 BL=8 CL=12, tRRD=2 tCCD=6, tRCD=12 tRAS=28 tRP=12 tRC=40
n_cmd=1042822 n_nop=1025464 n_act=205 n_pre=189 n_req=4241 n_rd=11468 n_write=5496 bw_util=0.03253
n_activity=48664 dram_eff=0.6972
bk0: 708a 1028663i bk1: 704a 1028817i bk2: 676a 1028519i bk3: 676a 1028019i bk4: 640a 1026975i bk5: 640a 1027211i bk6: 732a 1026894i bk7: 732a 1026618i bk8: 756a 1027374i bk9: 756a 1028010i bk10: 768a 1026817i bk11: 768a 1026856i bk12: 748a 1027818i bk13: 748a 1027279i bk14: 708a 1028897i bk15: 708a 1028646i 
dram_util_bins: 0 0 0 0 0 0 0 0 0 0
dram_eff_bins: 0 0 0 0 0 0 0 0 0 0
mrqq: max=64 avg=1.30626
Memory Partition 1: 
Cache L2_bank_002:
MSHR contents

Cache L2_bank_003:
MSHR contents

In Dram Latency Queue (total = 0): 
DRAM[1]: 16 bks, busW=4 BL=8 CL=12, tRRD=2 tCCD=6, tRCD=12 tRAS=28 tRP=12 tRC=40
n_cmd=1042822 n_nop=1025476 n_act=203 n_pre=187 n_req=4239 n_rd=11460 n_write=5496 bw_util=0.03252
n_activity=48683 dram_eff=0.6966
bk0: 704a 1029419i bk1: 704a 1028927i bk2: 676a 1028182i bk3: 676a 1028069i bk4: 628a 1028125i bk5: 628a 1028133i bk6: 744a 1026678i bk7: 744a 1026751i bk8: 756a 1026823i bk9: 756a 1027087i bk10: 768a 1027048i bk11: 768a 1026889i bk12: 748a 1027046i bk13: 748a 1027235i bk14: 708a 1029055i bk15: 704a 1029145i 
dram_util_bins: 0 0 0 0 0 0 0 0 0 0
dram_eff_bins: 0 0 0 0 0 0 0 0 0 0
mrqq: max=64 avg=1.31137
Memory Partition 2: 
Cache L2_bank_004:
MSHR contents

Cache L2_bank_005:
MSHR contents

In Dram Latency Queue (total = 0): 
DRAM[2]: 16 bks, busW=4 BL=8 CL=12, tRRD=2 tCCD=6, tRCD=12 tRAS=28 tRP=12 tRC=40
n_cmd=1042822 n_nop=1025462 n_act=204 n_pre=188 n_req=4242 n_rd=11464 n_write=5504 bw_util=0.03254
n_activity=48738 dram_eff=0.6963
bk0: 696a 1029012i bk1: 696a 1028847i bk2: 688a 1027054i bk3: 688a 1027460i bk4: 628a 1027585i bk5: 628a 1027631i bk6: 744a 1026325i bk7: 744a 1026735i bk8: 756a 1027845i bk9: 756a 1027735i bk10: 768a 1026862i bk11: 768a 1026717i bk12: 748a 1027169i bk13: 748a 1026958i bk14: 704a 1029536i bk15: 704a 1029049i 
dram_util_bins: 0 0 0 0 0 0 0 0 0 0
dram_eff_bins: 0 0 0 0 0 0 0 0 0 0
mrqq: max=64 avg=1.31284
Memory Partition 3: 
Cache L2_bank_006:
MSHR contents

Cache L2_bank_007:
MSHR contents

In Dram Latency Queue (total = 0): 
DRAM[3]: 16 bks, busW=4 BL=8 CL=12, tRRD=2 tCCD=6, tRCD=12 tRAS=28 tRP=12 tRC=40
n_cmd=1042822 n_nop=1025474 n_act=206 n_pre=190 n_req=4238 n_rd=11456 n_write=5496 bw_util=0.03251
n_activity=48669 dram_eff=0.6966
bk0: 696a 1029292i bk1: 696a 1029168i bk2: 688a 1027779i bk3: 688a 1027528i bk4: 628a 1027819i bk5: 628a 1027659i bk6: 744a 1026738i bk7: 744a 1026725i bk8: 756a 1027488i bk9: 756a 1027536i bk10: 768a 1026727i bk11: 768a 1026919i bk12: 744a 1027653i bk13: 744a 1027652i bk14: 704a 1028908i bk15: 704a 1028953i 
dram_util_bins: 0 0 0 0 0 0 0 0 0 0
dram_eff_bins: 0 0 0 0 0 0 0 0 0 0
mrqq: max=64 avg=1.31777
Memory Partition 4: 
Cache L2_bank_008:
MSHR contents

Cache L2_bank_009:
MSHR contents

In Dram Latency Queue (total = 0): 
DRAM[4]: 16 bks, busW=4 BL=8 CL=12, tRRD=2 tCCD=6, tRCD=12 tRAS=28 tRP=12 tRC=40
n_cmd=1042822 n_nop=1025480 n_act=199 n_pre=183 n_req=4240 n_rd=11464 n_write=5496 bw_util=0.03253
n_activity=48432 dram_eff=0.7004
bk0: 696a 1029512i bk1: 696a 1029072i bk2: 688a 1027693i bk3: 688a 1027349i bk4: 628a 1028176i bk5: 628a 1028086i bk6: 732a 1027086i bk7: 732a 1027056i bk8: 768a 1027160i bk9: 768a 1027268i bk10: 768a 1027232i bk11: 768a 1027277i bk12: 744a 1027310i bk13: 744a 1027661i bk14: 708a 1028489i bk15: 708a 1029081i 
dram_util_bins: 0 0 0 0 0 0 0 0 0 0
dram_eff_bins: 0 0 0 0 0 0 0 0 0 0
mrqq: max=64 avg=1.31116
Memory Partition 5: 
Cache L2_bank_010:
MSHR contents

Cache L2_bank_011:
MSHR contents
MSHR: tag=0x8078b080, atomic=0 1 entries : 0x7f123b03bd20 :  mf: uid=644072, sid05:w04, part=5, addr=0x8078b080, load , size=128, unknown  status = IN_PARTITION_DRAM (783757), 

In Dram Latency Queue (total = 0): 
DRAM[5]: 16 bks, busW=4 BL=8 CL=12, tRRD=2 tCCD=6, tRCD=12 tRAS=28 tRP=12 tRC=40
n_cmd=1042822 n_nop=1025459 n_act=202 n_pre=186 n_req=4244 n_rd=11471 n_write=5504 bw_util=0.03256
n_activity=48822 dram_eff=0.6954
bk0: 696a 1029647i bk1: 696a 1029528i bk2: 680a 1028254i bk3: 680a 1028298i bk4: 640a 1027220i bk5: 640a 1027322i bk6: 732a 1027051i bk7: 732a 1026901i bk8: 768a 1026684i bk9: 768a 1026889i bk10: 768a 1026693i bk11: 768a 1026386i bk12: 744a 1027135i bk13: 743a 1027157i bk14: 708a 1028883i bk15: 708a 1028591i 
dram_util_bins: 0 0 0 0 0 0 0 0 0 0
dram_eff_bins: 0 0 0 0 0 0 0 0 0 0
mrqq: max=64 avg=1.31477
Memory Partition 6: 
Cache L2_bank_012:
MSHR contents
MSHR: tag=0x80782200, atomic=0 1 entries : 0x7f123b4d7dd0 :  mf: uid=643992, sid05:w09, part=6, addr=0x80782200, load , size=128, unknown  status = IN_PARTITION_DRAM (783752), 
MSHR: tag=0x80791f00, atomic=0 1 entries : 0x7f123b55f770 :  mf: uid=643978, sid04:w11, part=6, addr=0x80791f00, load , size=128, unknown  status = IN_PARTITION_DRAM (783757), 

Cache L2_bank_013:
MSHR contents
MSHR: tag=0x80782280, atomic=0 1 entries : 0x7f123aca79c0 :  mf: uid=644081, sid05:w09, part=6, addr=0x80782280, load , size=128, unknown  status = IN_PARTITION_DRAM (783756), 
MSHR: tag=0x80791f80, atomic=0 1 entries : 0x7f123bc49570 :  mf: uid=644077, sid04:w11, part=6, addr=0x80791f80, load , size=128, unknown  status = IN_PARTITION_DRAM (783757), 

In Dram Latency Queue (total = 0): 
DRAM[6]: 16 bks, busW=4 BL=8 CL=12, tRRD=2 tCCD=6, tRCD=12 tRAS=28 tRP=12 tRC=40
n_cmd=1042822 n_nop=1025490 n_act=198 n_pre=182 n_req=4240 n_rd=11456 n_write=5496 bw_util=0.03251
n_activity=48562 dram_eff=0.6982
bk0: 704a 1028943i bk1: 704a 1028729i bk2: 680a 1028201i bk3: 680a 1028285i bk4: 640a 1027462i bk5: 640a 1027509i bk6: 732a 1027137i bk7: 732a 1027119i bk8: 768a 1026939i bk9: 768a 1027147i bk10: 768a 1027091i bk11: 768a 1027235i bk12: 740a 1027346i bk13: 740a 1027355i bk14: 696a 1029696i bk15: 696a 1029789i 
dram_util_bins: 0 0 0 0 0 0 0 0 0 0
dram_eff_bins: 0 0 0 0 0 0 0 0 0 0
mrqq: max=64 avg=1.31696
Memory Partition 7: 
Cache L2_bank_014:
MSHR contents

Cache L2_bank_015:
MSHR contents

In Dram Latency Queue (total = 0): 
DRAM[7]: 16 bks, busW=4 BL=8 CL=12, tRRD=2 tCCD=6, tRCD=12 tRAS=28 tRP=12 tRC=40
n_cmd=1042822 n_nop=1025484 n_act=201 n_pre=185 n_req=4238 n_rd=11456 n_write=5496 bw_util=0.03251
n_activity=48832 dram_eff=0.6943
bk0: 704a 1028838i bk1: 704a 1028869i bk2: 676a 1028881i bk3: 676a 1028347i bk4: 640a 1027158i bk5: 640a 1027362i bk6: 732a 1026933i bk7: 732a 1026854i bk8: 768a 1026965i bk9: 768a 1026989i bk10: 756a 1027090i bk11: 756a 1027905i bk12: 756a 1027267i bk13: 756a 1027022i bk14: 696a 1029821i bk15: 696a 1029361i 
dram_util_bins: 0 0 0 0 0 0 0 0 0 0
dram_eff_bins: 0 0 0 0 0 0 0 0 0 0
mrqq: max=64 avg=1.31207
Memory Partition 8: 
Cache L2_bank_016:
MSHR contents

Cache L2_bank_017:
MSHR contents

In Dram Latency Queue (total = 0): 
DRAM[8]: 16 bks, busW=4 BL=8 CL=12, tRRD=2 tCCD=6, tRCD=12 tRAS=28 tRP=12 tRC=40
n_cmd=1042822 n_nop=1025470 n_act=200 n_pre=184 n_req=4242 n_rd=11464 n_write=5504 bw_util=0.03254
n_activity=48553 dram_eff=0.6989
bk0: 704a 1029278i bk1: 704a 1028986i bk2: 676a 1028265i bk3: 676a 1028540i bk4: 640a 1027463i bk5: 640a 1027631i bk6: 736a 1027020i bk7: 736a 1027006i bk8: 768a 1026987i bk9: 768a 1027170i bk10: 756a 1027165i bk11: 756a 1027577i bk12: 756a 1026784i bk13: 756a 1027129i bk14: 696a 1029385i bk15: 696a 1030117i 
dram_util_bins: 0 0 0 0 0 0 0 0 0 0
dram_eff_bins: 0 0 0 0 0 0 0 0 0 0
mrqq: max=64 avg=1.31644
Memory Partition 9: 
Cache L2_bank_018:
MSHR contents

Cache L2_bank_019:
MSHR contents
MSHR: tag=0x80792280, atomic=0 1 entries : 0x7f123bd4a680 :  mf: uid=644084, sid05:w09, part=9, addr=0x80792280, load , size=128, unknown  status = IN_PARTITION_DRAM (783757), 

In Dram Latency Queue (total = 0): 
DRAM[9]: 16 bks, busW=4 BL=8 CL=12, tRRD=2 tCCD=6, tRCD=12 tRAS=28 tRP=12 tRC=40
n_cmd=1042822 n_nop=1025486 n_act=200 n_pre=184 n_req=4238 n_rd=11456 n_write=5496 bw_util=0.03251
n_activity=48416 dram_eff=0.7003
bk0: 692a 1029033i bk1: 692a 1029242i bk2: 684a 1028083i bk3: 684a 1027743i bk4: 640a 1027130i bk5: 640a 1027416i bk6: 736a 1026928i bk7: 736a 1027282i bk8: 768a 1027041i bk9: 768a 1027340i bk10: 756a 1027030i bk11: 756a 1027350i bk12: 756a 1026186i bk13: 756a 1026700i bk14: 696a 1029472i bk15: 696a 1029346i 
dram_util_bins: 0 0 0 0 0 0 0 0 0 0
dram_eff_bins: 0 0 0 0 0 0 0 0 0 0
mrqq: max=64 avg=1.31367
Memory Partition 10: 
Cache L2_bank_020:
MSHR contents

Cache L2_bank_021:
MSHR contents

In Dram Latency Queue (total = 0): 
DRAM[10]: 16 bks, busW=4 BL=8 CL=12, tRRD=2 tCCD=6, tRCD=12 tRAS=28 tRP=12 tRC=40
n_cmd=1042822 n_nop=1025476 n_act=201 n_pre=185 n_req=4240 n_rd=11464 n_write=5496 bw_util=0.03253
n_activity=48852 dram_eff=0.6943
bk0: 692a 1029162i bk1: 692a 1029816i bk2: 684a 1027626i bk3: 684a 1027612i bk4: 640a 1027404i bk5: 640a 1027415i bk6: 740a 1027218i bk7: 740a 1026979i bk8: 768a 1026549i bk9: 768a 1027214i bk10: 756a 1027371i bk11: 756a 1027288i bk12: 744a 1027279i bk13: 744a 1028204i bk14: 708a 1029413i bk15: 708a 1029292i 
dram_util_bins: 0 0 0 0 0 0 0 0 0 0
dram_eff_bins: 0 0 0 0 0 0 0 0 0 0
mrqq: max=64 avg=1.30899

========= L2 cache stats =========
L2_cache_bank[0]: Access = 2171, Miss = 1434, Miss_rate = 0.661, Pending_hits = 34, Reservation_fails = 0
L2_cache_bank[1]: Access = 2143, Miss = 1433, Miss_rate = 0.669, Pending_hits = 111, Reservation_fails = 0
L2_cache_bank[2]: Access = 2141, Miss = 1433, Miss_rate = 0.669, Pending_hits = 1, Reservation_fails = 0
L2_cache_bank[3]: Access = 2112, Miss = 1432, Miss_rate = 0.678, Pending_hits = 101, Reservation_fails = 0
L2_cache_bank[4]: Access = 2114, Miss = 1433, Miss_rate = 0.678, Pending_hits = 0, Reservation_fails = 0
L2_cache_bank[5]: Access = 2115, Miss = 1433, Miss_rate = 0.678, Pending_hits = 108, Reservation_fails = 0
L2_cache_bank[6]: Access = 2114, Miss = 1432, Miss_rate = 0.677, Pending_hits = 0, Reservation_fails = 0
L2_cache_bank[7]: Access = 2113, Miss = 1432, Miss_rate = 0.678, Pending_hits = 102, Reservation_fails = 0
L2_cache_bank[8]: Access = 2140, Miss = 1433, Miss_rate = 0.670, Pending_hits = 29, Reservation_fails = 0
L2_cache_bank[9]: Access = 2141, Miss = 1433, Miss_rate = 0.669, Pending_hits = 135, Reservation_fails = 0
L2_cache_bank[10]: Access = 2144, Miss = 1434, Miss_rate = 0.669, Pending_hits = 30, Reservation_fails = 0
L2_cache_bank[11]: Access = 2144, Miss = 1434, Miss_rate = 0.669, Pending_hits = 128, Reservation_fails = 0
L2_cache_bank[12]: Access = 2142, Miss = 1433, Miss_rate = 0.669, Pending_hits = 29, Reservation_fails = 0
L2_cache_bank[13]: Access = 2141, Miss = 1433, Miss_rate = 0.669, Pending_hits = 133, Reservation_fails = 0
L2_cache_bank[14]: Access = 2140, Miss = 1432, Miss_rate = 0.669, Pending_hits = 28, Reservation_fails = 0
L2_cache_bank[15]: Access = 2141, Miss = 1432, Miss_rate = 0.669, Pending_hits = 133, Reservation_fails = 0
L2_cache_bank[16]: Access = 2144, Miss = 1433, Miss_rate = 0.668, Pending_hits = 28, Reservation_fails = 0
L2_cache_bank[17]: Access = 2144, Miss = 1433, Miss_rate = 0.668, Pending_hits = 134, Reservation_fails = 0
L2_cache_bank[18]: Access = 2141, Miss = 1432, Miss_rate = 0.669, Pending_hits = 8, Reservation_fails = 0
L2_cache_bank[19]: Access = 2140, Miss = 1432, Miss_rate = 0.669, Pending_hits = 106, Reservation_fails = 0
L2_cache_bank[20]: Access = 2141, Miss = 1433, Miss_rate = 0.669, Pending_hits = 3, Reservation_fails = 0
L2_cache_bank[21]: Access = 2142, Miss = 1433, Miss_rate = 0.669, Pending_hits = 113, Reservation_fails = 0
L2_total_cache_accesses = 47008
L2_total_cache_misses = 31522
L2_total_cache_miss_rate = 0.6706
L2_total_cache_pending_hits = 1494
L2_total_cache_reservation_fails = 0
L2_total_cache_breakdown:
	L2_cache_stats_breakdown[GLOBAL_ACC_R][HIT] = 13832
	L2_cache_stats_breakdown[GLOBAL_ACC_R][HIT_RESERVED] = 1168
	L2_cache_stats_breakdown[GLOBAL_ACC_R][MISS] = 16384
	L2_cache_stats_breakdown[GLOBAL_ACC_R][RESERVATION_FAIL] = 0
	L2_cache_stats_breakdown[LOCAL_ACC_R][HIT] = 0
	L2_cache_stats_breakdown[LOCAL_ACC_R][HIT_RESERVED] = 0
	L2_cache_stats_breakdown[LOCAL_ACC_R][MISS] = 0
	L2_cache_stats_breakdown[LOCAL_ACC_R][RESERVATION_FAIL] = 0
	L2_cache_stats_breakdown[CONST_ACC_R][HIT] = 0
	L2_cache_stats_breakdown[CONST_ACC_R][HIT_RESERVED] = 27
	L2_cache_stats_breakdown[CONST_ACC_R][MISS] = 1
	L2_cache_stats_breakdown[CONST_ACC_R][RESERVATION_FAIL] = 0
	L2_cache_stats_breakdown[TEXTURE_ACC_R][HIT] = 0
	L2_cache_stats_breakdown[TEXTURE_ACC_R][HIT_RESERVED] = 0
	L2_cache_stats_breakdown[TEXTURE_ACC_R][MISS] = 0
	L2_cache_stats_breakdown[TEXTURE_ACC_R][RESERVATION_FAIL] = 0
	L2_cache_stats_breakdown[GLOBAL_ACC_W][HIT] = 0
	L2_cache_stats_breakdown[GLOBAL_ACC_W][HIT_RESERVED] = 0
	L2_cache_stats_breakdown[GLOBAL_ACC_W][MISS] = 15120
	L2_cache_stats_breakdown[GLOBAL_ACC_W][RESERVATION_FAIL] = 0
	L2_cache_stats_breakdown[LOCAL_ACC_W][HIT] = 0
	L2_cache_stats_breakdown[LOCAL_ACC_W][HIT_RESERVED] = 0
	L2_cache_stats_breakdown[LOCAL_ACC_W][MISS] = 0
	L2_cache_stats_breakdown[LOCAL_ACC_W][RESERVATION_FAIL] = 0
	L2_cache_stats_breakdown[L1_WRBK_ACC][HIT] = 0
	L2_cache_stats_breakdown[L1_WRBK_ACC][HIT_RESERVED] = 0
	L2_cache_stats_breakdown[L1_WRBK_ACC][MISS] = 0
	L2_cache_stats_breakdown[L1_WRBK_ACC][RESERVATION_FAIL] = 0
	L2_cache_stats_breakdown[L2_WRBK_ACC][HIT] = 0
	L2_cache_stats_breakdown[L2_WRBK_ACC][HIT_RESERVED] = 0
	L2_cache_stats_breakdown[L2_WRBK_ACC][MISS] = 0
	L2_cache_stats_breakdown[L2_WRBK_ACC][RESERVATION_FAIL] = 0
	L2_cache_stats_breakdown[INST_ACC_R][HIT] = 160
	L2_cache_stats_breakdown[INST_ACC_R][HIT_RESERVED] = 299
	L2_cache_stats_breakdown[INST_ACC_R][MISS] = 17
	L2_cache_stats_breakdown[INST_ACC_R][RESERVATION_FAIL] = 0
	L2_cache_stats_breakdown[L1_WR_ALLOC_R][HIT] = 0
	L2_cache_stats_breakdown[L1_WR_ALLOC_R][HIT_RESERVED] = 0
	L2_cache_stats_breakdown[L1_WR_ALLOC_R][MISS] = 0
	L2_cache_stats_breakdown[L1_WR_ALLOC_R][RESERVATION_FAIL] = 0
	L2_cache_stats_breakdown[L2_WR_ALLOC_R][HIT] = 0
	L2_cache_stats_breakdown[L2_WR_ALLOC_R][HIT_RESERVED] = 0
	L2_cache_stats_breakdown[L2_WR_ALLOC_R][MISS] = 0
	L2_cache_stats_breakdown[L2_WR_ALLOC_R][RESERVATION_FAIL] = 0
	L2_cache_stats_breakdown[GLOBAL_ACC_R][TOTAL_ACCESS] = 31384
	L2_cache_stats_breakdown[CONST_ACC_R][TOTAL_ACCESS] = 28
	L2_cache_stats_breakdown[GLOBAL_ACC_W][TOTAL_ACCESS] = 15120
	L2_cache_stats_breakdown[INST_ACC_R][TOTAL_ACCESS] = 476
L2_cache_data_port_util = 0.003
L2_cache_fill_port_util = 0.010

icnt_total_pkts_mem_to_simt=151824
icnt_total_pkts_simt_to_mem=107488
LD_mem_lat_dist  0 0 0 0 0 0 0 0 0 0 0 0 0 0 0 0 0 0 0 0 0 0 0 0 0 0 0
ST_mem_lat_dist  0 0 0 0 0 0 0 0 0 0 0 0 0 0 0 0 0 0 0 0 0 0 0 0 0 0 0
----------------------------Interconnect-DETAILS--------------------------------
Class 0:
Packet latency average = 22.4236
	minimum = 6
	maximum = 1541
Network latency average = 18.1655
	minimum = 6
	maximum = 1366
Slowest packet = 41119
Flit latency average = 21.0519
	minimum = 6
	maximum = 1362
Slowest flit = 116162
Fragmentation average = 1.00617
	minimum = 0
	maximum = 1289
Injected packet rate average = 0.00167405
	minimum = 0.00132655 (at node 0)
	maximum = 0.00198181 (at node 3)
Accepted packet rate average = 0.00167405
	minimum = 0.00132655 (at node 0)
	maximum = 0.00198181 (at node 3)
Injected flit rate average = 0.00461732
	minimum = 0.00303593 (at node 0)
	maximum = 0.00624903 (at node 28)
Accepted flit rate average= 0.00461732
	minimum = 0.00428057 (at node 0)
	maximum = 0.00638169 (at node 3)
Injected packet length average = 2.75817
Accepted packet length average = 2.75817
Total in-flight flits = 0 (0 measured)
====== Overall Traffic Statistics ======
====== Traffic class 0 ======
Packet latency average = 22.4236 (1 samples)
	minimum = 6 (1 samples)
	maximum = 1541 (1 samples)
Network latency average = 18.1655 (1 samples)
	minimum = 6 (1 samples)
	maximum = 1366 (1 samples)
Flit latency average = 21.0519 (1 samples)
	minimum = 6 (1 samples)
	maximum = 1362 (1 samples)
Fragmentation average = 1.00617 (1 samples)
	minimum = 0 (1 samples)
	maximum = 1289 (1 samples)
Injected packet rate average = 0.00167405 (1 samples)
	minimum = 0.00132655 (1 samples)
	maximum = 0.00198181 (1 samples)
Accepted packet rate average = 0.00167405 (1 samples)
	minimum = 0.00132655 (1 samples)
	maximum = 0.00198181 (1 samples)
Injected flit rate average = 0.00461732 (1 samples)
	minimum = 0.00303593 (1 samples)
	maximum = 0.00624903 (1 samples)
Accepted flit rate average = 0.00461732 (1 samples)
	minimum = 0.00428057 (1 samples)
	maximum = 0.00638169 (1 samples)
Injected packet size average = 2.75817 (1 samples)
Accepted packet size average = 2.75817 (1 samples)
Hops average = 1 (1 samples)
----------------------------END-of-Interconnect-DETAILS-------------------------


gpgpu_simulation_time = 0 days, 0 hrs, 24 min, 6 sec (1446 sec)
gpgpu_simulation_rate = 19950 (inst/sec)
gpgpu_simulation_rate = 542 (cycle/sec)

GPGPU-Sim PTX: cudaLaunch for 0x0x401496 (mode=performance simulation) on stream 0
GPGPU-Sim PTX: pushing kernel '_Z24block2D_hybrid_coarsen_xffPfS_iii' to stream 0, gridDim= (2,32,1) blockDim = (32,4,1) 
GPGPU-Sim uArch: Shader 9 bind to kernel 2 '_Z24block2D_hybrid_coarsen_xffPfS_iii'
GPGPU-Sim uArch: Shader 10 bind to kernel 2 '_Z24block2D_hybrid_coarsen_xffPfS_iii'
GPGPU-Sim uArch: Shader 11 bind to kernel 2 '_Z24block2D_hybrid_coarsen_xffPfS_iii'
GPGPU-Sim uArch: Shader 12 bind to kernel 2 '_Z24block2D_hybrid_coarsen_xffPfS_iii'
GPGPU-Sim uArch: Shader 13 bind to kernel 2 '_Z24block2D_hybrid_coarsen_xffPfS_iii'
GPGPU-Sim uArch: Shader 14 bind to kernel 2 '_Z24block2D_hybrid_coarsen_xffPfS_iii'
GPGPU-Sim uArch: Shader 15 bind to kernel 2 '_Z24block2D_hybrid_coarsen_xffPfS_iii'
GPGPU-Sim uArch: Shader 16 bind to kernel 2 '_Z24block2D_hybrid_coarsen_xffPfS_iii'
GPGPU-Sim uArch: Shader 17 bind to kernel 2 '_Z24block2D_hybrid_coarsen_xffPfS_iii'
GPGPU-Sim uArch: Shader 18 bind to kernel 2 '_Z24block2D_hybrid_coarsen_xffPfS_iii'
GPGPU-Sim uArch: Shader 19 bind to kernel 2 '_Z24block2D_hybrid_coarsen_xffPfS_iii'
GPGPU-Sim uArch: Shader 20 bind to kernel 2 '_Z24block2D_hybrid_coarsen_xffPfS_iii'
GPGPU-Sim uArch: Shader 21 bind to kernel 2 '_Z24block2D_hybrid_coarsen_xffPfS_iii'
GPGPU-Sim uArch: Shader 22 bind to kernel 2 '_Z24block2D_hybrid_coarsen_xffPfS_iii'
GPGPU-Sim uArch: Shader 23 bind to kernel 2 '_Z24block2D_hybrid_coarsen_xffPfS_iii'
GPGPU-Sim uArch: Shader 24 bind to kernel 2 '_Z24block2D_hybrid_coarsen_xffPfS_iii'
GPGPU-Sim uArch: Shader 25 bind to kernel 2 '_Z24block2D_hybrid_coarsen_xffPfS_iii'
GPGPU-Sim uArch: Shader 26 bind to kernel 2 '_Z24block2D_hybrid_coarsen_xffPfS_iii'
GPGPU-Sim uArch: Shader 27 bind to kernel 2 '_Z24block2D_hybrid_coarsen_xffPfS_iii'
GPGPU-Sim uArch: Shader 0 bind to kernel 2 '_Z24block2D_hybrid_coarsen_xffPfS_iii'
GPGPU-Sim uArch: Shader 1 bind to kernel 2 '_Z24block2D_hybrid_coarsen_xffPfS_iii'
GPGPU-Sim uArch: Shader 2 bind to kernel 2 '_Z24block2D_hybrid_coarsen_xffPfS_iii'
GPGPU-Sim uArch: Shader 3 bind to kernel 2 '_Z24block2D_hybrid_coarsen_xffPfS_iii'
GPGPU-Sim uArch: Shader 4 bind to kernel 2 '_Z24block2D_hybrid_coarsen_xffPfS_iii'
GPGPU-Sim uArch: Shader 5 bind to kernel 2 '_Z24block2D_hybrid_coarsen_xffPfS_iii'
GPGPU-Sim uArch: Shader 6 bind to kernel 2 '_Z24block2D_hybrid_coarsen_xffPfS_iii'
GPGPU-Sim uArch: Shader 7 bind to kernel 2 '_Z24block2D_hybrid_coarsen_xffPfS_iii'
GPGPU-Sim uArch: Shader 8 bind to kernel 2 '_Z24block2D_hybrid_coarsen_xffPfS_iii'
Destroy streams for kernel 2: size 0
kernel_name = _Z24block2D_hybrid_coarsen_xffPfS_iii 
kernel_launch_uid = 2 
gpu_sim_cycle = 603340
gpu_sim_insn = 28848876
gpu_ipc =      47.8153
gpu_tot_sim_cycle = 1609248
gpu_tot_sim_insn = 57697752
gpu_tot_ipc =      35.8539
gpu_tot_issued_cta = 128
max_total_param_size = 0
gpu_stall_dramfull = 95083
gpu_stall_icnt2sh    = 5261
partiton_reqs_in_parallel = 13273063
partiton_reqs_in_parallel_total    = 12260710
partiton_level_parallism =      21.9993
partiton_level_parallism_total  =      15.8669
partiton_reqs_in_parallel_util = 13273063
partiton_reqs_in_parallel_util_total    = 12260710
gpu_sim_cycle_parition_util = 603340
gpu_tot_sim_cycle_parition_util    = 560633
partiton_level_parallism_util =      21.9993
partiton_level_parallism_util_total  =      21.9367
partiton_replys_in_parallel = 46504
partiton_replys_in_parallel_total    = 47008
L2_BW  =       7.3057 GB/Sec
L2_BW_total  =       5.5078 GB/Sec
gpu_total_sim_rate=19820

========= Core cache stats =========
L1I_cache:
	L1I_total_cache_accesses = 1158456
	L1I_total_cache_misses = 3000
	L1I_total_cache_miss_rate = 0.0026
	L1I_total_cache_pending_hits = 0
	L1I_total_cache_reservation_fails = 0
L1D_cache:
	L1D_cache_core[0]: Access = 0, Miss = 0, Miss_rate = -nan, Pending_hits = 0, Reservation_fails = 0
	L1D_cache_core[1]: Access = 0, Miss = 0, Miss_rate = -nan, Pending_hits = 0, Reservation_fails = 0
	L1D_cache_core[2]: Access = 0, Miss = 0, Miss_rate = -nan, Pending_hits = 0, Reservation_fails = 0
	L1D_cache_core[3]: Access = 0, Miss = 0, Miss_rate = -nan, Pending_hits = 0, Reservation_fails = 0
	L1D_cache_core[4]: Access = 0, Miss = 0, Miss_rate = -nan, Pending_hits = 0, Reservation_fails = 0
	L1D_cache_core[5]: Access = 0, Miss = 0, Miss_rate = -nan, Pending_hits = 0, Reservation_fails = 0
	L1D_cache_core[6]: Access = 0, Miss = 0, Miss_rate = -nan, Pending_hits = 0, Reservation_fails = 0
	L1D_cache_core[7]: Access = 0, Miss = 0, Miss_rate = -nan, Pending_hits = 0, Reservation_fails = 0
	L1D_cache_core[8]: Access = 0, Miss = 0, Miss_rate = -nan, Pending_hits = 0, Reservation_fails = 0
	L1D_cache_core[9]: Access = 0, Miss = 0, Miss_rate = -nan, Pending_hits = 0, Reservation_fails = 0
	L1D_cache_core[10]: Access = 0, Miss = 0, Miss_rate = -nan, Pending_hits = 0, Reservation_fails = 0
	L1D_cache_core[11]: Access = 0, Miss = 0, Miss_rate = -nan, Pending_hits = 0, Reservation_fails = 0
	L1D_cache_core[12]: Access = 0, Miss = 0, Miss_rate = -nan, Pending_hits = 0, Reservation_fails = 0
	L1D_cache_core[13]: Access = 0, Miss = 0, Miss_rate = -nan, Pending_hits = 0, Reservation_fails = 0
	L1D_cache_core[14]: Access = 0, Miss = 0, Miss_rate = -nan, Pending_hits = 0, Reservation_fails = 0
	L1D_cache_core[15]: Access = 0, Miss = 0, Miss_rate = -nan, Pending_hits = 0, Reservation_fails = 0
	L1D_cache_core[16]: Access = 0, Miss = 0, Miss_rate = -nan, Pending_hits = 0, Reservation_fails = 0
	L1D_cache_core[17]: Access = 0, Miss = 0, Miss_rate = -nan, Pending_hits = 0, Reservation_fails = 0
	L1D_cache_core[18]: Access = 0, Miss = 0, Miss_rate = -nan, Pending_hits = 0, Reservation_fails = 0
	L1D_cache_core[19]: Access = 0, Miss = 0, Miss_rate = -nan, Pending_hits = 0, Reservation_fails = 0
	L1D_cache_core[20]: Access = 0, Miss = 0, Miss_rate = -nan, Pending_hits = 0, Reservation_fails = 0
	L1D_cache_core[21]: Access = 0, Miss = 0, Miss_rate = -nan, Pending_hits = 0, Reservation_fails = 0
[...]
F: 26647015----T: 26650445 	 St: 805e3000 Sz: 16384 	 Sm: 0 	 T: memcpy_h2d(2.316003)
F: 26648256----T: 26656958 	 St: 80633000 Sz: 65536 	 Sm: 0 	 T: write_back(5.875760)
F: 26656958----T: 26686270 	 St: 805e7000 Sz: 245760 	 Sm: 0 	 T: memcpy_h2d(19.792032)
F: 26656958----T: 26673121 	 St: 80643000 Sz: 131072 	 Sm: 0 	 T: write_back(10.913572)
F: 26689739----T: 26698441 	 St: 80473000 Sz: 65536 	 Sm: 0 	 T: write_back(5.875760)
F: 26698441----T: 26714604 	 St: 80433000 Sz: 131072 	 Sm: 0 	 T: memcpy_h2d(10.913572)
F: 26698441----T: 26707143 	 St: 80483000 Sz: 65536 	 Sm: 0 	 T: write_back(5.875760)
F: 26707143----T: 26715845 	 St: 80673000 Sz: 65536 	 Sm: 0 	 T: write_back(5.875760)
F: 26714604----T: 26717690 	 St: 80623000 Sz: 12288 	 Sm: 0 	 T: memcpy_h2d(2.083727)
F: 26715845----T: 26724547 	 St: 80683000 Sz: 65536 	 Sm: 0 	 T: write_back(5.875760)
F: 26724547----T: 26733249 	 St: 80463000 Sz: 65536 	 Sm: 0 	 T: write_back(5.875760)
F: 26733249----T: 26763032 	 St: 80626000 Sz: 249856 	 Sm: 0 	 T: memcpy_h2d(20.110062)
F: 26733249----T: 26741951 	 St: 80493000 Sz: 65536 	 Sm: 0 	 T: write_back(5.875760)
F: 26767609----T: 26776311 	 St: 804c3000 Sz: 65536 	 Sm: 0 	 T: write_back(5.875760)
F: 26776311----T: 26785013 	 St: 804b3000 Sz: 65536 	 Sm: 0 	 T: write_back(5.875760)
F: 26785013----T: 26793715 	 St: 806b3000 Sz: 65536 	 Sm: 0 	 T: write_back(5.875760)
F: 26793715----T: 26824908 	 St: 80463000 Sz: 262144 	 Sm: 0 	 T: memcpy_h2d(21.062120)
F: 26793715----T: 26802417 	 St: 806c3000 Sz: 65536 	 Sm: 0 	 T: write_back(5.875760)
F: 26802417----T: 26811119 	 St: 804a3000 Sz: 65536 	 Sm: 0 	 T: write_back(5.875760)
F: 26811119----T: 26819821 	 St: 804d3000 Sz: 65536 	 Sm: 0 	 T: write_back(5.875760)
F: 26824908----T: 26827994 	 St: 80673000 Sz: 12288 	 Sm: 0 	 T: memcpy_h2d(2.083727)
F: 26827994----T: 26842752 	 St: 80676000 Sz: 118784 	 Sm: 0 	 T: memcpy_h2d(9.964889)
F: 26846237----T: 26854939 	 St: 80503000 Sz: 65536 	 Sm: 0 	 T: write_back(5.875760)
F: 26854939----T: 26863641 	 St: 806f3000 Sz: 65536 	 Sm: 0 	 T: write_back(5.875760)
F: 26863641----T: 26872343 	 St: 80703000 Sz: 65536 	 Sm: 0 	 T: write_back(5.875760)
F: 26872343----T: 26903536 	 St: 804a3000 Sz: 262144 	 Sm: 0 	 T: memcpy_h2d(21.062120)
F: 26872343----T: 26881045 	 St: 806e3000 Sz: 65536 	 Sm: 0 	 T: write_back(5.875760)
F: 26881045----T: 26889747 	 St: 80713000 Sz: 65536 	 Sm: 0 	 T: write_back(5.875760)
F: 26889748----T: 26898450 	 St: 80523000 Sz: 65536 	 Sm: 0 	 T: write_back(5.875760)
F: 26903536----T: 26906622 	 St: 806b3000 Sz: 12288 	 Sm: 0 	 T: memcpy_h2d(2.083727)
F: 26906622----T: 26921380 	 St: 806b6000 Sz: 118784 	 Sm: 0 	 T: memcpy_h2d(9.964889)
F: 26923722----T: 26932424 	 St: 80503000 Sz: 65536 	 Sm: 0 	 T: memcpy_h2d(5.875760)
F: 26923722----T: 26932424 	 St: 80533000 Sz: 65536 	 Sm: 0 	 T: write_back(5.875760)
F: 26932424----T: 26941126 	 St: 80523000 Sz: 65536 	 Sm: 0 	 T: memcpy_h2d(5.875760)
F: 26932424----T: 26941126 	 St: 80543000 Sz: 65536 	 Sm: 0 	 T: write_back(5.875760)
F: 26941126----T: 26944212 	 St: 806e3000 Sz: 12288 	 Sm: 0 	 T: memcpy_h2d(2.083727)
F: 26941126----T: 26949828 	 St: 80733000 Sz: 65536 	 Sm: 0 	 T: write_back(5.875760)
F: 26949828----T: 26958530 	 St: 80743000 Sz: 65536 	 Sm: 0 	 T: write_back(5.875760)
F: 26958530----T: 26967232 	 St: 80723000 Sz: 65536 	 Sm: 0 	 T: write_back(5.875760)
F: 26967232----T: 26997015 	 St: 806e6000 Sz: 249856 	 Sm: 0 	 T: memcpy_h2d(20.110062)
F: 26967232----T: 26975934 	 St: 80753000 Sz: 65536 	 Sm: 0 	 T: write_back(5.875760)
F: 27000494----T: 27009196 	 St: 80593000 Sz: 65536 	 Sm: 0 	 T: write_back(5.875760)
F: 27009196----T: 27025359 	 St: 80533000 Sz: 131072 	 Sm: 0 	 T: memcpy_h2d(10.913572)
F: 27009196----T: 27017898 	 St: 80583000 Sz: 65536 	 Sm: 0 	 T: write_back(5.875760)
F: 27017898----T: 27026600 	 St: 80793000 Sz: 65536 	 Sm: 0 	 T: write_back(5.875760)
F: 27025359----T: 27028445 	 St: 80723000 Sz: 12288 	 Sm: 0 	 T: memcpy_h2d(2.083727)
F: 27026600----T: 27035302 	 St: 80763000 Sz: 65536 	 Sm: 0 	 T: write_back(5.875760)
F: 27035302----T: 27065085 	 St: 80726000 Sz: 249856 	 Sm: 0 	 T: memcpy_h2d(20.110062)
F: 27035302----T: 27051465 	 St: 80773000 Sz: 131072 	 Sm: 0 	 T: write_back(10.913572)
F: 27068546----T: 27077248 	 St: 805b3000 Sz: 65536 	 Sm: 0 	 T: write_back(5.875760)
F: 27077248----T: 27093411 	 St: 80583000 Sz: 131072 	 Sm: 0 	 T: memcpy_h2d(10.913572)
F: 27077248----T: 27085950 	 St: 803b3000 Sz: 65536 	 Sm: 0 	 T: write_back(5.875760)
F: 27085950----T: 27094652 	 St: 805c3000 Sz: 65536 	 Sm: 0 	 T: write_back(5.875760)
F: 27093411----T: 27096497 	 St: 80763000 Sz: 12288 	 Sm: 0 	 T: memcpy_h2d(2.083727)
F: 27094652----T: 27103354 	 St: 803c3000 Sz: 65536 	 Sm: 0 	 T: write_back(5.875760)
F: 27103354----T: 27112056 	 St: 803a3000 Sz: 65536 	 Sm: 0 	 T: write_back(5.875760)
F: 27112056----T: 27141839 	 St: 80766000 Sz: 249856 	 Sm: 0 	 T: memcpy_h2d(20.110062)
F: 27112056----T: 27120758 	 St: 803d3000 Sz: 65536 	 Sm: 0 	 T: write_back(5.875760)
F: 27369373----T: 27846779 	 	 	 Kl: 39 	 Sm: 0 	 T: kernel_launch(322.353821)
F: 27369756----T: 27373186 	 St: 803a3000 Sz: 16384 	 Sm: 0 	 T: memcpy_h2d(2.316003)
F: 27369756----T: 27378458 	 St: 803f3000 Sz: 65536 	 Sm: 0 	 T: write_back(5.875760)
F: 27373186----T: 27375791 	 St: 803a7000 Sz: 4096 	 Sm: 0 	 T: memcpy_h2d(1.758947)
F: 27378458----T: 27387160 	 St: 80603000 Sz: 65536 	 Sm: 0 	 T: write_back(5.875760)
F: 27387160----T: 27395862 	 St: 80403000 Sz: 65536 	 Sm: 0 	 T: write_back(5.875760)
F: 27395862----T: 27424704 	 St: 803a8000 Sz: 241664 	 Sm: 0 	 T: memcpy_h2d(19.474680)
F: 27395862----T: 27404564 	 St: 80613000 Sz: 65536 	 Sm: 0 	 T: write_back(5.875760)
F: 27404564----T: 27413266 	 St: 803e3000 Sz: 65536 	 Sm: 0 	 T: write_back(5.875760)
F: 27413266----T: 27421968 	 St: 80413000 Sz: 65536 	 Sm: 0 	 T: write_back(5.875760)
F: 27424704----T: 27440867 	 St: 805b3000 Sz: 131072 	 Sm: 0 	 T: memcpy_h2d(10.913572)
F: 27427866----T: 27436568 	 St: 80433000 Sz: 65536 	 Sm: 0 	 T: write_back(5.875760)
F: 27436568----T: 27445270 	 St: 80423000 Sz: 65536 	 Sm: 0 	 T: write_back(5.875760)
F: 27440867----T: 27443953 	 St: 803e3000 Sz: 12288 	 Sm: 0 	 T: memcpy_h2d(2.083727)
F: 27445270----T: 27453972 	 St: 80633000 Sz: 65536 	 Sm: 0 	 T: write_back(5.875760)
F: 27453972----T: 27483755 	 St: 803e6000 Sz: 249856 	 Sm: 0 	 T: memcpy_h2d(20.110062)
F: 27453972----T: 27470135 	 St: 80443000 Sz: 131072 	 Sm: 0 	 T: write_back(10.913572)
F: 27470136----T: 27478838 	 St: 80643000 Sz: 65536 	 Sm: 0 	 T: write_back(5.875760)
F: 27483755----T: 27499918 	 St: 80603000 Sz: 131072 	 Sm: 0 	 T: memcpy_h2d(10.913572)
F: 27487193----T: 27495895 	 St: 80673000 Sz: 65536 	 Sm: 0 	 T: write_back(5.875760)
F: 27495895----T: 27504597 	 St: 80473000 Sz: 65536 	 Sm: 0 	 T: write_back(5.875760)
F: 27499918----T: 27503004 	 St: 80423000 Sz: 12288 	 Sm: 0 	 T: memcpy_h2d(2.083727)
F: 27504597----T: 27513299 	 St: 80683000 Sz: 65536 	 Sm: 0 	 T: write_back(5.875760)
F: 27513299----T: 27543082 	 St: 80426000 Sz: 249856 	 Sm: 0 	 T: memcpy_h2d(20.110062)
F: 27513299----T: 27522001 	 St: 80663000 Sz: 65536 	 Sm: 0 	 T: write_back(5.875760)
F: 27522001----T: 27530703 	 St: 80693000 Sz: 65536 	 Sm: 0 	 T: write_back(5.875760)
F: 27530704----T: 27539406 	 St: 80493000 Sz: 65536 	 Sm: 0 	 T: write_back(5.875760)
F: 27543082----T: 27559245 	 St: 80633000 Sz: 131072 	 Sm: 0 	 T: memcpy_h2d(10.913572)
F: 27547652----T: 27556354 	 St: 804a3000 Sz: 65536 	 Sm: 0 	 T: write_back(5.875760)
F: 27556354----T: 27565056 	 St: 806c3000 Sz: 65536 	 Sm: 0 	 T: write_back(5.875760)
F: 27559245----T: 27562331 	 St: 80473000 Sz: 12288 	 Sm: 0 	 T: memcpy_h2d(2.083727)
F: 27562331----T: 27569653 	 St: 80476000 Sz: 53248 	 Sm: 0 	 T: memcpy_h2d(4.943957)
F: 27565056----T: 27573758 	 St: 806b3000 Sz: 65536 	 Sm: 0 	 T: write_back(5.875760)
F: 27569653----T: 27578355 	 St: 80493000 Sz: 65536 	 Sm: 0 	 T: memcpy_h2d(5.875760)
F: 27573758----T: 27582460 	 St: 804c3000 Sz: 65536 	 Sm: 0 	 T: write_back(5.875760)
F: 27582460----T: 27591162 	 St: 804b3000 Sz: 65536 	 Sm: 0 	 T: write_back(5.875760)
F: 27591162----T: 27622355 	 St: 80663000 Sz: 262144 	 Sm: 0 	 T: memcpy_h2d(21.062120)
F: 27591162----T: 27599864 	 St: 804d3000 Sz: 65536 	 Sm: 0 	 T: write_back(5.875760)
F: 27599864----T: 27608566 	 St: 806f3000 Sz: 65536 	 Sm: 0 	 T: write_back(5.875760)
F: 27608566----T: 27617268 	 St: 80703000 Sz: 65536 	 Sm: 0 	 T: write_back(5.875760)
F: 27617268----T: 27625970 	 St: 804f3000 Sz: 65536 	 Sm: 0 	 T: write_back(5.875760)
F: 27622355----T: 27626574 	 St: 804a3000 Sz: 24576 	 Sm: 0 	 T: memcpy_h2d(2.848751)
F: 27625971----T: 27634673 	 St: 80503000 Sz: 65536 	 Sm: 0 	 T: write_back(5.875760)
F: 27626574----T: 27632535 	 St: 804a9000 Sz: 40960 	 Sm: 0 	 T: memcpy_h2d(4.024983)
F: 27632535----T: 27641237 	 St: 804c3000 Sz: 65536 	 Sm: 0 	 T: memcpy_h2d(5.875760)
F: 27634673----T: 27643375 	 St: 80713000 Sz: 65536 	 Sm: 0 	 T: write_back(5.875760)
F: 27641237----T: 27657400 	 St: 806b3000 Sz: 131072 	 Sm: 0 	 T: memcpy_h2d(10.913572)
F: 27643375----T: 27652077 	 St: 80513000 Sz: 65536 	 Sm: 0 	 T: write_back(5.875760)
F: 27652077----T: 27660779 	 St: 80523000 Sz: 65536 	 Sm: 0 	 T: write_back(5.875760)
F: 27657400----T: 27660486 	 St: 804b3000 Sz: 12288 	 Sm: 0 	 T: memcpy_h2d(2.083727)
F: 27660486----T: 27667808 	 St: 804b6000 Sz: 53248 	 Sm: 0 	 T: memcpy_h2d(4.943957)
F: 27660779----T: 27669481 	 St: 80723000 Sz: 65536 	 Sm: 0 	 T: write_back(5.875760)
F: 27667808----T: 27683971 	 St: 804f3000 Sz: 131072 	 Sm: 0 	 T: memcpy_h2d(10.913572)
F: 27669481----T: 27678183 	 St: 80733000 Sz: 65536 	 Sm: 0 	 T: write_back(5.875760)
F: 27678183----T: 27686885 	 St: 80533000 Sz: 65536 	 Sm: 0 	 T: write_back(5.875760)
F: 27683971----T: 27700134 	 St: 806f3000 Sz: 131072 	 Sm: 0 	 T: memcpy_h2d(10.913572)
F: 27686885----T: 27695587 	 St: 80743000 Sz: 65536 	 Sm: 0 	 T: write_back(5.875760)
F: 27695587----T: 27704289 	 St: 80543000 Sz: 65536 	 Sm: 0 	 T: write_back(5.875760)
F: 27700134----T: 27702739 	 St: 804d3000 Sz: 4096 	 Sm: 0 	 T: memcpy_h2d(1.758947)
F: 27702739----T: 27710979 	 St: 804d4000 Sz: 61440 	 Sm: 0 	 T: memcpy_h2d(5.563808)
F: 27704289----T: 27712991 	 St: 80593000 Sz: 65536 	 Sm: 0 	 T: write_back(5.875760)
F: 27710979----T: 27727142 	 St: 80513000 Sz: 131072 	 Sm: 0 	 T: memcpy_h2d(10.913572)
F: 27712992----T: 27721694 	 St: 80573000 Sz: 65536 	 Sm: 0 	 T: write_back(5.875760)
F: 27727142----T: 27743305 	 St: 80713000 Sz: 131072 	 Sm: 0 	 T: memcpy_h2d(10.913572)
F: 27729357----T: 27738059 	 St: 80773000 Sz: 65536 	 Sm: 0 	 T: write_back(5.875760)
F: 27738059----T: 27746761 	 St: 80793000 Sz: 65536 	 Sm: 0 	 T: write_back(5.875760)
F: 27743305----T: 27746391 	 St: 80533000 Sz: 12288 	 Sm: 0 	 T: memcpy_h2d(2.083727)
F: 27746391----T: 27761149 	 St: 80536000 Sz: 118784 	 Sm: 0 	 T: memcpy_h2d(9.964889)
F: 27746761----T: 27755463 	 St: 80763000 Sz: 65536 	 Sm: 0 	 T: write_back(5.875760)
F: 27755463----T: 27764165 	 St: 80783000 Sz: 65536 	 Sm: 0 	 T: write_back(5.875760)
F: 27761149----T: 27769851 	 St: 80573000 Sz: 65536 	 Sm: 0 	 T: memcpy_h2d(5.875760)
F: 27764165----T: 27772867 	 St: 803a3000 Sz: 65536 	 Sm: 0 	 T: write_back(5.875760)
F: 27769851----T: 27778553 	 St: 80593000 Sz: 65536 	 Sm: 0 	 T: memcpy_h2d(5.875760)
F: 27772867----T: 27781569 	 St: 805c3000 Sz: 65536 	 Sm: 0 	 T: write_back(5.875760)
F: 27778553----T: 27794716 	 St: 80733000 Sz: 131072 	 Sm: 0 	 T: memcpy_h2d(10.913572)
F: 27781569----T: 27790271 	 St: 803d3000 Sz: 65536 	 Sm: 0 	 T: write_back(5.875760)
F: 27790271----T: 27798973 	 St: 805d3000 Sz: 65536 	 Sm: 0 	 T: write_back(5.875760)
F: 27794716----T: 27803418 	 St: 803a3000 Sz: 65536 	 Sm: 0 	 T: memcpy_h2d(5.875760)
F: 27798973----T: 27807675 	 St: 805e3000 Sz: 65536 	 Sm: 0 	 T: write_back(5.875760)
F: 27803418----T: 27807230 	 St: 80763000 Sz: 20480 	 Sm: 0 	 T: memcpy_h2d(2.573936)
F: 27807675----T: 27816377 	 St: 803e3000 Sz: 65536 	 Sm: 0 	 T: write_back(5.875760)
F: 27816378----T: 27845220 	 St: 80768000 Sz: 241664 	 Sm: 0 	 T: memcpy_h2d(19.474680)
F: 27816378----T: 27825080 	 St: 805f3000 Sz: 65536 	 Sm: 0 	 T: write_back(5.875760)
F: 28068929----T: 28629887 	 	 	 Kl: 40 	 Sm: 0 	 T: kernel_launch(378.769745)
F: 28070297----T: 28078999 	 St: 80413000 Sz: 65536 	 Sm: 0 	 T: write_back(5.875760)
F: 28078999----T: 28095162 	 St: 803d3000 Sz: 131072 	 Sm: 0 	 T: memcpy_h2d(10.913572)
F: 28078999----T: 28087701 	 St: 80613000 Sz: 65536 	 Sm: 0 	 T: write_back(5.875760)
F: 28087701----T: 28096403 	 St: 80423000 Sz: 65536 	 Sm: 0 	 T: write_back(5.875760)
F: 28095162----T: 28098248 	 St: 805c3000 Sz: 12288 	 Sm: 0 	 T: memcpy_h2d(2.083727)
F: 28096403----T: 28105105 	 St: 80623000 Sz: 65536 	 Sm: 0 	 T: write_back(5.875760)
F: 28105105----T: 28113807 	 St: 80433000 Sz: 65536 	 Sm: 0 	 T: write_back(5.875760)
F: 28113808----T: 28143591 	 St: 805c6000 Sz: 249856 	 Sm: 0 	 T: memcpy_h2d(20.110062)
F: 28113808----T: 28129971 	 St: 80443000 Sz: 131072 	 Sm: 0 	 T: write_back(10.913572)
F: 28148190----T: 28156892 	 St: 80463000 Sz: 65536 	 Sm: 0 	 T: write_back(5.875760)
F: 28156892----T: 28165594 	 St: 80473000 Sz: 65536 	 Sm: 0 	 T: write_back(5.875760)
F: 28165594----T: 28204313 	 St: 80413000 Sz: 327680 	 Sm: 0 	 T: memcpy_h2d(26.143822)
F: 28165594----T: 28181757 	 St: 80483000 Sz: 131072 	 Sm: 0 	 T: write_back(10.913572)
F: 28181757----T: 28190459 	 St: 80643000 Sz: 65536 	 Sm: 0 	 T: write_back(5.875760)
F: 28190460----T: 28199162 	 St: 80673000 Sz: 65536 	 Sm: 0 	 T: write_back(5.875760)
F: 28204313----T: 28207399 	 St: 80613000 Sz: 12288 	 Sm: 0 	 T: memcpy_h2d(2.083727)
F: 28207399----T: 28222157 	 St: 80616000 Sz: 118784 	 Sm: 0 	 T: memcpy_h2d(9.964889)
F: 28224522----T: 28233224 	 St: 806a3000 Sz: 65536 	 Sm: 0 	 T: write_back(5.875760)
F: 28233224----T: 28241926 	 St: 804b3000 Sz: 65536 	 Sm: 0 	 T: write_back(5.875760)
F: 28241926----T: 28250628 	 St: 806b3000 Sz: 65536 	 Sm: 0 	 T: write_back(5.875760)
F: 28250628----T: 28281821 	 St: 80463000 Sz: 262144 	 Sm: 0 	 T: memcpy_h2d(21.062120)
F: 28250628----T: 28259330 	 St: 804c3000 Sz: 65536 	 Sm: 0 	 T: write_back(5.875760)
F: 28259330----T: 28275493 	 St: 806c3000 Sz: 131072 	 Sm: 0 	 T: write_back(10.913572)
F: 28281821----T: 28284907 	 St: 80643000 Sz: 12288 	 Sm: 0 	 T: memcpy_h2d(2.083727)
F: 28284907----T: 28292229 	 St: 80646000 Sz: 53248 	 Sm: 0 	 T: memcpy_h2d(4.943957)
F: 28292229----T: 28300931 	 St: 80673000 Sz: 65536 	 Sm: 0 	 T: memcpy_h2d(5.875760)
F: 28304303----T: 28313005 	 St: 806f3000 Sz: 65536 	 Sm: 0 	 T: write_back(5.875760)
F: 28313005----T: 28329168 	 St: 804b3000 Sz: 131072 	 Sm: 0 	 T: memcpy_h2d(10.913572)
F: 28313005----T: 28321707 	 St: 80503000 Sz: 65536 	 Sm: 0 	 T: write_back(5.875760)
F: 28321707----T: 28330409 	 St: 80703000 Sz: 65536 	 Sm: 0 	 T: write_back(5.875760)
F: 28329168----T: 28332598 	 St: 806a3000 Sz: 16384 	 Sm: 0 	 T: memcpy_h2d(2.316003)
F: 28330409----T: 28339111 	 St: 80513000 Sz: 65536 	 Sm: 0 	 T: write_back(5.875760)
F: 28339111----T: 28347813 	 St: 806e3000 Sz: 65536 	 Sm: 0 	 T: write_back(5.875760)
F: 28347813----T: 28377125 	 St: 806a7000 Sz: 245760 	 Sm: 0 	 T: memcpy_h2d(19.792032)
F: 28347813----T: 28356515 	 St: 80713000 Sz: 65536 	 Sm: 0 	 T: write_back(5.875760)
F: 28380557----T: 28389259 	 St: 80533000 Sz: 65536 	 Sm: 0 	 T: write_back(5.875760)
F: 28389259----T: 28405422 	 St: 80503000 Sz: 131072 	 Sm: 0 	 T: memcpy_h2d(10.913572)
F: 28389259----T: 28397961 	 St: 80543000 Sz: 65536 	 Sm: 0 	 T: write_back(5.875760)
F: 28397961----T: 28406663 	 St: 80523000 Sz: 65536 	 Sm: 0 	 T: write_back(5.875760)
F: 28405422----T: 28408852 	 St: 806e3000 Sz: 16384 	 Sm: 0 	 T: memcpy_h2d(2.316003)
F: 28406663----T: 28415365 	 St: 80553000 Sz: 65536 	 Sm: 0 	 T: write_back(5.875760)
F: 28415365----T: 28444677 	 St: 806e7000 Sz: 245760 	 Sm: 0 	 T: memcpy_h2d(19.792032)
F: 28415365----T: 28446558 	 St: 80563000 Sz: 262144 	 Sm: 0 	 T: write_back(21.062120)
F: 28449802----T: 28452888 	 St: 80523000 Sz: 12288 	 Sm: 0 	 T: memcpy_h2d(2.083727)
F: 28449802----T: 28458504 	 St: 80773000 Sz: 65536 	 Sm: 0 	 T: write_back(5.875760)
F: 28458504----T: 28474667 	 St: 80783000 Sz: 131072 	 Sm: 0 	 T: write_back(10.913572)
F: 28474667----T: 28483369 	 St: 805b3000 Sz: 65536 	 Sm: 0 	 T: write_back(5.875760)
F: 28483369----T: 28492071 	 St: 803c3000 Sz: 65536 	 Sm: 0 	 T: write_back(5.875760)
F: 28492071----T: 28551966 	 St: 80526000 Sz: 512000 	 Sm: 0 	 T: memcpy_h2d(40.442268)
F: 28492071----T: 28500773 	 St: 805d3000 Sz: 65536 	 Sm: 0 	 T: write_back(5.875760)
F: 28500774----T: 28509476 	 St: 803d3000 Sz: 65536 	 Sm: 0 	 T: write_back(5.875760)
F: 28551966----T: 28555052 	 St: 80773000 Sz: 12288 	 Sm: 0 	 T: memcpy_h2d(2.083727)
F: 28555052----T: 28562374 	 St: 80776000 Sz: 53248 	 Sm: 0 	 T: memcpy_h2d(4.943957)
F: 28556146----T: 28564848 	 St: 803e3000 Sz: 65536 	 Sm: 0 	 T: write_back(5.875760)
F: 28562374----T: 28571076 	 St: 803d3000 Sz: 65536 	 Sm: 0 	 T: memcpy_h2d(5.875760)
F: 28564848----T: 28573550 	 St: 805f3000 Sz: 65536 	 Sm: 0 	 T: write_back(5.875760)
F: 28571076----T: 28579778 	 St: 805d3000 Sz: 65536 	 Sm: 0 	 T: memcpy_h2d(5.875760)
F: 28573551----T: 28582253 	 St: 803f3000 Sz: 65536 	 Sm: 0 	 T: write_back(5.875760)
F: 28579778----T: 28582864 	 St: 80783000 Sz: 12288 	 Sm: 0 	 T: memcpy_h2d(2.083727)
F: 28582864----T: 28590186 	 St: 80786000 Sz: 53248 	 Sm: 0 	 T: memcpy_h2d(4.943957)
F: 28583957----T: 28592659 	 St: 80603000 Sz: 65536 	 Sm: 0 	 T: write_back(5.875760)
F: 28592659----T: 28608822 	 St: 803e3000 Sz: 131072 	 Sm: 0 	 T: memcpy_h2d(10.913572)
F: 28592659----T: 28601361 	 St: 80403000 Sz: 65536 	 Sm: 0 	 T: write_back(5.875760)
F: 28601361----T: 28610063 	 St: 80613000 Sz: 65536 	 Sm: 0 	 T: write_back(5.875760)
F: 28608822----T: 28617524 	 St: 805f3000 Sz: 65536 	 Sm: 0 	 T: memcpy_h2d(5.875760)
F: 28610064----T: 28618766 	 St: 80413000 Sz: 65536 	 Sm: 0 	 T: write_back(5.875760)
F: 28617524----T: 28620129 	 St: 80793000 Sz: 4096 	 Sm: 0 	 T: memcpy_h2d(1.758947)
F: 28620129----T: 28628369 	 St: 80794000 Sz: 61440 	 Sm: 0 	 T: memcpy_h2d(5.563808)
F: 28629887----T: 28632492 	 St: 0 Sz: 4096 	 Sm: 0 	 T: device_sync(1.758947)
F: 28629887----T: 28638127 	 St: 0 Sz: 61440 	 Sm: 0 	 T: device_sync(5.563808)
F: 28640732----T: 28643337 	 St: 0 Sz: 4096 	 Sm: 0 	 T: device_sync(1.758947)
F: 28640732----T: 28648972 	 St: 0 Sz: 61440 	 Sm: 0 	 T: device_sync(5.563808)
F: 28651577----T: 28654182 	 St: 0 Sz: 4096 	 Sm: 0 	 T: device_sync(1.758947)
F: 28651577----T: 28667272 	 St: 0 Sz: 126976 	 Sm: 0 	 T: device_sync(10.597569)
F: 28669877----T: 28672482 	 St: 0 Sz: 4096 	 Sm: 0 	 T: device_sync(1.758947)
F: 28669877----T: 28700600 	 St: 0 Sz: 258048 	 Sm: 0 	 T: device_sync(20.744766)
F: 28703205----T: 28705810 	 St: 0 Sz: 4096 	 Sm: 0 	 T: device_sync(1.758947)
F: 28703205----T: 28764041 	 St: 0 Sz: 520192 	 Sm: 0 	 T: device_sync(41.077652)
F: 28766646----T: 28769251 	 St: 0 Sz: 4096 	 Sm: 0 	 T: device_sync(1.758947)
F: 28766646----T: 28887735 	 St: 0 Sz: 1044480 	 Sm: 0 	 T: device_sync(81.761650)
F: 28890340----T: 28892945 	 St: 0 Sz: 4096 	 Sm: 0 	 T: device_sync(1.758947)
F: 28890340----T: 28898580 	 St: 0 Sz: 61440 	 Sm: 0 	 T: device_sync(5.563808)
F: 28901185----T: 28903790 	 St: 0 Sz: 4096 	 Sm: 0 	 T: device_sync(1.758947)
F: 28901185----T: 28909425 	 St: 0 Sz: 61440 	 Sm: 0 	 T: device_sync(5.563808)
Tot_prefetch_time: 0(cycle), 0.000000(us)
Tot_kernel_exec_time: 19743887(cycle), 13331.457031(us)
Tot_kernel_exec_time_and_fault_time: 45135632(cycle), 30476.457031(us)
Tot_memcpy_h2d_time: 15530447(cycle), 10486.459961(us)
Tot_memcpy_d2h_time: 0(cycle), 0.000000(us)
Tot_memcpy_time: 15530447(cycle), 10486.459961(us)
Tot_devicesync_time: 282143(cycle), 190.508438(us)
Tot_writeback_time: 15407673(cycle), 10403.560547(us)
Tot_rdma_time: 0(cycle), 0.000000(us)
Tot_memcpy_d2h_sync_wb_time: 15689816(cycle), 10594.069336(us)
GPGPU-Sim: *** exit detected ***
