

        *** GPGPU-Sim Simulator Version 3.2.2  [build gpgpu-sim_git-commit-1c1adf09f9d1bccf70ff97255c2b46b40ff0e800_modified_0] ***


GPGPU-Sim PTX: simulation mode 0 (can change with PTX_SIM_MODE_FUNC environment variable:
               1=functional simulation only, 0=detailed performance simulator)
GPGPU-Sim: Configuration options:

-network_mode                           1 # Interconnection network mode
-inter_config_file   config_fermi_islip.icnt # Interconnection network config file
-gpgpu_ptx_use_cuobjdump                    1 # Use cuobjdump to extract ptx and sass from binaries
-gpgpu_experimental_lib_support                    0 # Try to extract code from cuda libraries [Broken because of unknown cudaGetExportTable]
-gpgpu_ptx_convert_to_ptxplus                    0 # Convert SASS (native ISA) to ptxplus and run ptxplus
-gpgpu_ptx_force_max_capability                   20 # Force maximum compute capability
-gpgpu_ptx_inst_debug_to_file                    0 # Dump executed instructions' debug information to file
-gpgpu_ptx_inst_debug_file       inst_debug.txt # Executed instructions' debug output file
-gpgpu_ptx_inst_debug_thread_uid                    1 # Thread UID for executed instructions' debug output
-gpgpu_simd_model                       1 # 1 = post-dominator
-gpgpu_shader_core_pipeline              2048:32 # shader core pipeline config, i.e., {<nthread>:<warpsize>}
-gpgpu_tex_cache:l1  16:128:24,L:R:m:N:L,F:128:4,128:2 # per-shader L1 texture cache  (READ-ONLY) config  {<nsets>:<bsize>:<assoc>,<rep>:<wr>:<alloc>:<wr_alloc>,<mshr>:<N>:<merge>,<mq>:<rf>}
-gpgpu_const_cache:l1 128:64:2,L:R:f:N:L,A:2:64,4 # per-shader L1 constant memory cache  (READ-ONLY) config  {<nsets>:<bsize>:<assoc>,<rep>:<wr>:<alloc>:<wr_alloc>,<mshr>:<N>:<merge>,<mq>} 
-gpgpu_cache:il1     8:128:4,L:R:f:N:L,A:2:48,4 # shader L1 instruction cache config  {<nsets>:<bsize>:<assoc>,<rep>:<wr>:<alloc>:<wr_alloc>,<mshr>:<N>:<merge>,<mq>} 
-gpgpu_cache:dl1     64:128:6,L:L:m:N:H,A:128:8,8 # per-shader L1 data cache config  {<nsets>:<bsize>:<assoc>,<rep>:<wr>:<alloc>:<wr_alloc>,<mshr>:<N>:<merge>,<mq> | none}
-gpgpu_cache:dl1PrefL1                 none # per-shader L1 data cache config  {<nsets>:<bsize>:<assoc>,<rep>:<wr>:<alloc>:<wr_alloc>,<mshr>:<N>:<merge>,<mq> | none}
-gpgpu_cache:dl1PrefShared                 none # per-shader L1 data cache config  {<nsets>:<bsize>:<assoc>,<rep>:<wr>:<alloc>:<wr_alloc>,<mshr>:<N>:<merge>,<mq> | none}
-gmem_skip_L1D                          1 # global memory access skip L1D cache (implements -Xptxas -dlcm=cg, default=no skip)
-gpgpu_perfect_mem                      0 # enable perfect memory mode (no cache miss)
-n_regfile_gating_group                    4 # group of lanes that should be read/written together)
-gpgpu_clock_gated_reg_file                    0 # enable clock gated reg file for power calculations
-gpgpu_clock_gated_lanes                    0 # enable clock gated lanes for power calculations
-gpgpu_shader_registers                65536 # Number of registers per shader core. Limits number of concurrent CTAs. (default 8192)
-gpgpu_shader_cta                      32 # Maximum number of concurrent CTAs in shader (default 8)
-gpgpu_num_cta_barriers                   16 # Maximum number of named barriers per CTA (default 16)
-gpgpu_n_clusters                      28 # number of processing clusters
-gpgpu_n_cores_per_cluster                    1 # number of simd cores per cluster
-gpgpu_n_cluster_ejection_buffer_size                    8 # number of packets in ejection buffer
-gpgpu_n_ldst_response_buffer_size                    2 # number of response packets in ld/st unit ejection buffer
-gpgpu_shmem_size                   16384 # Size of shared memory per shader core (default 16kB)
-gpgpu_shmem_size                   98304 # Size of shared memory per shader core (default 16kB)
-gpgpu_shmem_size_PrefL1                16384 # Size of shared memory per shader core (default 16kB)
-gpgpu_shmem_size_PrefShared                16384 # Size of shared memory per shader core (default 16kB)
-gpgpu_shmem_num_banks                   32 # Number of banks in the shared memory in each shader core (default 16)
-gpgpu_shmem_limited_broadcast                    0 # Limit shared memory to do one broadcast per cycle (default on)
-gpgpu_shmem_warp_parts                    1 # Number of portions a warp is divided into for shared memory bank conflict check 
-gpgpu_warpdistro_shader                   -1 # Specify which shader core to collect the warp size distribution from
-gpgpu_warp_issue_shader                    0 # Specify which shader core to collect the warp issue distribution from
-gpgpu_local_mem_map                    1 # Mapping from local memory space address to simulated GPU physical address space (default = enabled)
-gpgpu_num_reg_banks                   32 # Number of register banks (default = 8)
-gpgpu_reg_bank_use_warp_id                    0 # Use warp ID in mapping registers to banks (default = off)
-gpgpu_operand_collector_num_units_sp                   20 # number of collector units (default = 4)
-gpgpu_operand_collector_num_units_sfu                    4 # number of collector units (default = 4)
-gpgpu_operand_collector_num_units_mem                    8 # number of collector units (default = 2)
-gpgpu_operand_collector_num_units_gen                    0 # number of collector units (default = 0)
-gpgpu_operand_collector_num_in_ports_sp                    4 # number of collector unit in ports (default = 1)
-gpgpu_operand_collector_num_in_ports_sfu                    1 # number of collector unit in ports (default = 1)
-gpgpu_operand_collector_num_in_ports_mem                    1 # number of collector unit in ports (default = 1)
-gpgpu_operand_collector_num_in_ports_gen                    0 # number of collector unit in ports (default = 0)
-gpgpu_operand_collector_num_out_ports_sp                    4 # number of collector unit in ports (default = 1)
-gpgpu_operand_collector_num_out_ports_sfu                    1 # number of collector unit in ports (default = 1)
-gpgpu_operand_collector_num_out_ports_mem                    1 # number of collector unit in ports (default = 1)
-gpgpu_operand_collector_num_out_ports_gen                    0 # number of collector unit in ports (default = 0)
-gpgpu_coalesce_arch                   13 # Coalescing arch (default = 13, anything else is off for now)
-gpgpu_num_sched_per_core                    2 # Number of warp schedulers per core
-gpgpu_max_insn_issue_per_warp                    2 # Max number of instructions that can be issued per warp in one cycle by scheduler
-gpgpu_simt_core_sim_order                    1 # Select the simulation order of cores in a cluster (0=Fix, 1=Round-Robin)
-gpgpu_pipeline_widths        4,1,1,4,1,1,6 # Pipeline widths ID_OC_SP,ID_OC_SFU,ID_OC_MEM,OC_EX_SP,OC_EX_SFU,OC_EX_MEM,EX_WB
-gpgpu_num_sp_units                     4 # Number of SP units (default=1)
-gpgpu_num_sfu_units                    1 # Number of SF units (default=1)
-gpgpu_num_mem_units                    1 # Number if ldst units (default=1) WARNING: not hooked up to anything
-gpgpu_scheduler                      gto # Scheduler configuration: < lrr | gto | two_level_active > If two_level_active:<num_active_warps>:<inner_prioritization>:<outer_prioritization>For complete list of prioritization values see shader.h enum scheduler_prioritization_typeDefault: gto
-gpgpu_concurrent_kernel_sm                    0 # Support concurrent kernels on a SM (default = disabled)
-tlb_size                            4096 # Number of tlb entries per SM.
-gpgpu_dram_scheduler                    1 # 0 = fifo, 1 = FR-FCFS (defaul)
-gpgpu_dram_partition_queues              8:8:8:8 # i2$:$2d:d2$:$2i
-l2_ideal                               0 # Use a ideal L2 cache that always hit
-gpgpu_cache:dl2     64:128:16,L:B:m:W:L,A:1024:1024,4:0,32 # unified banked L2 data cache config  {<nsets>:<bsize>:<assoc>,<rep>:<wr>:<alloc>:<wr_alloc>,<mshr>:<N>:<merge>,<mq>}
-gpgpu_cache:dl2_texture_only                    0 # L2 cache used for texture only
-gpgpu_n_mem                           11 # number of memory modules (e.g. memory controllers) in gpu
-gpgpu_n_sub_partition_per_mchannel                    2 # number of memory subpartition in each memory module
-gpgpu_n_mem_per_ctrlr                    1 # number of memory chips per memory controller
-gpgpu_memlatency_stat                   14 # track and display latency statistics 0x2 enables MC, 0x4 enables queue logs
-gpgpu_frfcfs_dram_sched_queue_size                   64 # 0 = unlimited (default); # entries per chip
-gpgpu_dram_return_queue_size                  116 # 0 = unlimited (default); # entries per chip
-gpgpu_dram_buswidth                    4 # default = 4 bytes (8 bytes per cycle at DDR)
-gpgpu_dram_burst_length                    8 # Burst length of each DRAM request (default = 4 data bus cycle)
-dram_data_command_freq_ratio                    4 # Frequency ratio between DRAM data bus and command bus (default = 2 times, i.e. DDR)
-gpgpu_dram_timing_opt nbk=16:CCD=2:RRD=6:RCD=12:RAS=28:RP=12:RC=40: CL=12:WL=4:CDLR=5:WR=12:nbkgrp=1:CCDL=0:RTPL=0 # DRAM timing parameters = {nbk:tCCD:tRRD:tRCD:tRAS:tRP:tRC:CL:WL:tCDLR:tWR:nbkgrp:tCCDL:tRTPL}
-rop_latency                          120 # ROP queue latency (default 85)
-dram_latency                         100 # DRAM latency (default 30)
-gpgpu_mem_addr_mapping dramid@8;00000000.00000000.00000000.00000000.0000RRRR.RRRRRRRR.RBBBCCCC.BCCSSSSS # mapping memory address to dram model {dramid@<start bit>;<memory address map>}
-gpgpu_mem_addr_test                    0 # run sweep test to check address mapping for aliased address
-gpgpu_mem_address_mask                    1 # 0 = old addressing mask, 1 = new addressing mask, 2 = new add. mask + flipped bank sel and chip sel bits
-gpuwattch_xml_file  gpuwattch_geforcegtx1080ti.xml # GPUWattch XML file
-power_simulation_enabled                    1 # Turn on power simulator (1=On, 0=Off)
-power_per_cycle_dump                    0 # Dump detailed power output each cycle
-power_trace_enabled                    0 # produce a file for the power trace (1=On, 0=Off)
-power_trace_zlevel                     6 # Compression level of the power trace output log (0=no comp, 9=highest)
-steady_power_levels_enabled                    0 # produce a file for the steady power levels (1=On, 0=Off)
-steady_state_definition                  8:4 # allowed deviation:number of samples
-gpgpu_max_cycle                        0 # terminates gpu simulation early (0 = no limit)
-gpgpu_max_insn                         0 # terminates gpu simulation early (0 = no limit)
-gpgpu_max_cta                          0 # terminates gpu simulation early (0 = no limit)
-gpgpu_runtime_stat                   500 # display runtime statistics such as dram utilization {<freq>:<flag>}
-liveness_message_freq                    1 # Minimum number of seconds between simulation liveness messages (0 = always print)
-gpgpu_flush_l1_cache                    0 # Flush L1 cache at the end of each kernel call
-gpgpu_flush_l2_cache                    0 # Flush L2 cache at the end of each kernel call
-gpgpu_deadlock_detect                    0 # Stop the simulation at deadlock (1=on (default), 0=off)
-gpgpu_ptx_instruction_classification                    0 # if enabled will classify ptx instruction types per kernel (Max 255 kernels now)
-gpgpu_ptx_sim_mode                     0 # Select between Performance (default) or Functional simulation (1)
-gpgpu_clock_domains 1481.0:2962.0:1481.0:2750.0 # Clock Domain Frequencies in MhZ {<Core Clock>:<ICNT Clock>:<L2 Clock>:<DRAM Clock>}
-gpgpu_max_concurrent_kernel                    8 # maximum kernels that can run concurrently on GPU
-gpgpu_cflog_interval                    0 # Interval between each snapshot in control flow logger
-visualizer_enabled                     0 # Turn on visualizer output (1=On, 0=Off)
-visualizer_outputfile                 NULL # Specifies the output log file for visualizer
-visualizer_zlevel                      6 # Compression level of the visualizer output log (0=no comp, 9=highest)
-trace_enabled                          0 # Turn on traces
-trace_components                    none # comma seperated list of traces to enable. Complete list found in trace_streams.tup. Default none
-trace_sampling_core                    0 # The core which is printed using CORE_DPRINTF. Default 0
-trace_sampling_memory_partition                   -1 # The memory partition which is printed using MEMPART_DPRINTF. Default -1 (i.e. all)
-gddr_size                     15.96591MB # Size of GDDR in MB/GB.(GLOBAL_HEAP_START, GLOBAL_HEAP_START + gddr_size) would be used for unmanged memory, (GLOBAL_HEAP_START + gddr_size, GLOBAL_HEAP_START + gddr_size*2) would be used for managed memory. 
-page_table_walk_latency                  100 # Average page table walk latency (in core cycle).
-eviction_policy                        2 # Select page eviction policy
-invalidate_clean                       0 # Should directly invalidate clean pages
-reserve_accessed_page_percent                    0 # Percentage of accessed pages reserved from eviction in hope that they will be accessed in next iteration.
-percentage_of_free_page_buffer                    0 # Percentage of free page buffer to trigger the page eviction.
-page_size                            4KB # GDDR page size, only 4KB/2MB avaliable.
-pcie_bandwidth                  16.0GB/s # PCI-e bandwidth per direction, in GB/s.
-enable_dma                             0 # Enable direct access to CPU memory
-multiply_dma_penalty                    2 # Oversubscription Multiplicative Penalty Factor for Adaptive DMA
-migrate_threshold                      8 # Access counter threshold for migrating the page from cpu to gpu
-sim_prof_enable                        1 # Enable gpgpu-sim profiler
-hardware_prefetch                      1 # Select gpgpu-sim hardware prefetcher
-hwprefetch_oversub                     0 # Select gpgpu-sim hardware prefetcher under over-subscription
-page_fault_latency                 66645 # Average fault latency (in core cycle).
-enable_accurate_simulation                    0 # Enable page fault functional simulation.
-enable_ptx_file_line_stats                    1 # Turn on PTX source line statistic profiling. (1 = On)
-ptx_line_stats_filename gpgpu_inst_stats.txt # Output file for PTX source line statistics.
-gpgpu_kernel_launch_latency               222150 # Kernel launch latency in cycles. Default: 0
-gpgpu_cdp_enabled                      0 # Turn on CDP
-save_embedded_ptx                      0 # saves ptx files embedded in binary as <n>.ptx
-keep                                   0 # keep intermediate files created by GPGPU-Sim when interfacing with external programs
-gpgpu_ptx_save_converted_ptxplus                    0 # Saved converted ptxplus to a file
-ptx_opcode_latency_int         4,13,4,5,145 # Opcode latencies for integers <ADD,MAX,MUL,MAD,DIV>Default 1,1,19,25,145
-ptx_opcode_latency_fp          4,13,4,5,39 # Opcode latencies for single precision floating points <ADD,MAX,MUL,MAD,DIV>Default 1,1,1,1,30
-ptx_opcode_latency_dp         8,19,8,8,330 # Opcode latencies for double precision floating points <ADD,MAX,MUL,MAD,DIV>Default 8,8,8,8,335
-ptx_opcode_initiation_int            1,2,2,2,8 # Opcode initiation intervals for integers <ADD,MAX,MUL,MAD,DIV>Default 1,1,4,4,32
-ptx_opcode_initiation_fp            1,2,1,1,4 # Opcode initiation intervals for single precision floating points <ADD,MAX,MUL,MAD,DIV>Default 1,1,1,1,5
-ptx_opcode_initiation_dp          1,2,1,1,130 # Opcode initiation intervals for double precision floating points <ADD,MAX,MUL,MAD,DIV>Default 8,8,8,8,130
-cdp_latency         7200,8000,100,12000,1600 # CDP API latency <cudaStreamCreateWithFlags, cudaGetParameterBufferV2_init_perWarp, cudaGetParameterBufferV2_perKernel, cudaLaunchDeviceV2_init_perWarp, cudaLaunchDevicV2_perKernel>Default 7200,8000,100,12000,1600
DRAM Timing Options:
nbk                                    16 # number of banks
CCD                                     2 # column to column delay
RRD                                     6 # minimal delay between activation of rows in different banks
RCD                                    12 # row to column delay
RAS                                    28 # time needed to activate row
RP                                     12 # time needed to precharge (deactivate) row
RC                                     40 # row cycle time
CDLR                                    5 # switching from write to read (changes tWTR)
WR                                     12 # last data-in to row precharge
CL                                     12 # CAS latency
WL                                      4 # Write latency
nbkgrp                                  1 # number of bank groups
CCDL                                    0 # column to column delay between accesses to different bank groups
RTPL                                    0 # read to precharge delay between accesses to different bank groups
Total number of memory sub partition = 22
addr_dec_mask[CHIP]  = 0000000000000000 	high:64 low:0
addr_dec_mask[BK]    = 0000000000007080 	high:15 low:7
addr_dec_mask[ROW]   = 000000000fff8000 	high:28 low:15
addr_dec_mask[COL]   = 0000000000000f7f 	high:12 low:0
addr_dec_mask[BURST] = 000000000000001f 	high:5 low:0
sub_partition_id_mask = 0000000000000080
GPGPU-Sim uArch: clock freqs: 1481000000.000000:2962000000.000000:1481000000.000000:2750000000.000000
GPGPU-Sim uArch: clock periods: 0.00000000067521944632:0.00000000033760972316:0.00000000067521944632:0.00000000036363636364
*** Initializing Memory Statistics ***
GPGPU-Sim uArch: interconnect node map (shaderID+MemID to icntID)
GPGPU-Sim uArch: Memory nodes ID start from index: 28
GPGPU-Sim uArch:    0   1   2   3   4   5   6
GPGPU-Sim uArch:    7   8   9  10  11  12  13
GPGPU-Sim uArch:   14  15  16  17  18  19  20
GPGPU-Sim uArch:   21  22  23  24  25  26  27
GPGPU-Sim uArch:   28  29  30  31  32  33  34
GPGPU-Sim uArch:   35  36  37  38  39  40  41
GPGPU-Sim uArch:   42  43  44  45  46  47  48
GPGPU-Sim uArch:   49
GPGPU-Sim uArch: interconnect node reverse map (icntID to shaderID+MemID)
GPGPU-Sim uArch: Memory nodes start from ID: 28
GPGPU-Sim uArch:    0   1   2   3   4   5   6
GPGPU-Sim uArch:    7   8   9  10  11  12  13
GPGPU-Sim uArch:   14  15  16  17  18  19  20
GPGPU-Sim uArch:   21  22  23  24  25  26  27
GPGPU-Sim uArch:   28  29  30  31  32  33  34
GPGPU-Sim uArch:   35  36  37  38  39  40  41
GPGPU-Sim uArch:   42  43  44  45  46  47  48
GPGPU-Sim uArch:   49
8aa444bebaa7cbfca23dcaf7b8db40c4  /root/gpgpu-sim_UVMSmart/benchmarks/Managed/backprop/backprop
GPGPU-Sim uArch: performance model initialization complete.
GPGPU-Sim PTX: __cudaRegisterFatBinary, fat_cubin_handle = 1, filename=default
self exe links to: /root/gpgpu-sim_UVMSmart/benchmarks/Managed/backprop/backprop
Running md5sum using "md5sum /root/gpgpu-sim_UVMSmart/benchmarks/Managed/backprop/backprop "
Parsing file _cuobjdump_complete_output_YMIfF4
######### cuobjdump parser ########
## Adding new section ELF
Adding arch: sm_20
Adding identifier: default
## Adding new section ELF
Adding arch: sm_20
Adding identifier: default
## Adding new section PTX
Adding ptx filename: _cuobjdump_1.ptx
Adding arch: sm_20
Adding identifier: default
Done parsing!!!
GPGPU-Sim PTX: __cudaRegisterFunction _Z24bpnn_adjust_weights_cudaPfiS_iS_S_ : hostFun 0x0x402d51, fat_cubin_handle = 1
GPGPU-Sim PTX: allocating shared region for "_Z22bpnn_layerforward_CUDAPfS_S_S_ii$__cuda_local_var_17900_34_non_const_input_node" from 0x0 to 0x40 (shared memory space)
GPGPU-Sim PTX: allocating shared region for "_Z22bpnn_layerforward_CUDAPfS_S_S_ii$__cuda_local_var_17901_34_non_const_weight_matrix" from 0x80 to 0x480 (shared memory space)
GPGPU-Sim PTX: instruction assembly for function '_Z22bpnn_layerforward_CUDAPfS_S_S_ii'...   done.
GPGPU-Sim PTX: finding reconvergence points for '_Z22bpnn_layerforward_CUDAPfS_S_S_ii'...
GPGPU-Sim PTX: Finding dominators for '_Z22bpnn_layerforward_CUDAPfS_S_S_ii'...
GPGPU-Sim PTX: Finding immediate dominators for '_Z22bpnn_layerforward_CUDAPfS_S_S_ii'...
GPGPU-Sim PTX: Finding postdominators for '_Z22bpnn_layerforward_CUDAPfS_S_S_ii'...
GPGPU-Sim PTX: Finding immediate postdominators for '_Z22bpnn_layerforward_CUDAPfS_S_S_ii'...
GPGPU-Sim PTX: pre-decoding instructions for '_Z22bpnn_layerforward_CUDAPfS_S_S_ii'...
GPGPU-Sim PTX: reconvergence points for _Z22bpnn_layerforward_CUDAPfS_S_S_ii...
GPGPU-Sim PTX:  1 (potential) branch divergence @  PC=0x068 (_1.ptx:47) @%p2 bra BB0_2;
GPGPU-Sim PTX:    immediate post dominator      @  PC=0x0a0 (_1.ptx:57) cvta.to.global.u64 %rd3, %rd8;
GPGPU-Sim PTX:  2 (potential) branch divergence @  PC=0x168 (_1.ptx:82) @%p3 bra BB0_7;
GPGPU-Sim PTX:    immediate post dominator      @  PC=0x250 (_1.ptx:119) setp.eq.s32%p1, %r3, 0;
GPGPU-Sim PTX:  3 (potential) branch divergence @  PC=0x1c8 (_1.ptx:97) @%p4 bra BB0_6;
GPGPU-Sim PTX:    immediate post dominator      @  PC=0x228 (_1.ptx:112) bar.sync 0;
GPGPU-Sim PTX:  4 (potential) branch divergence @  PC=0x248 (_1.ptx:116) @%p5 bra BB0_4;
GPGPU-Sim PTX:    immediate post dominator      @  PC=0x250 (_1.ptx:119) setp.eq.s32%p1, %r3, 0;
GPGPU-Sim PTX:  5 (potential) branch divergence @  PC=0x270 (_1.ptx:123) @!%p1 bra BB0_9;
GPGPU-Sim PTX:    immediate post dominator      @  PC=0x2c8 (_1.ptx:138) ret;
GPGPU-Sim PTX:  6 (potential) branch divergence @  PC=0x278 (_1.ptx:124) bra.uni BB0_8;
GPGPU-Sim PTX:    immediate post dominator      @  PC=0x280 (_1.ptx:127) cvt.u32.u64%r20, %rd1;
GPGPU-Sim PTX: ... end of reconvergence points for _Z22bpnn_layerforward_CUDAPfS_S_S_ii
GPGPU-Sim PTX: ... done pre-decoding instructions for '_Z22bpnn_layerforward_CUDAPfS_S_S_ii'.
GPGPU-Sim PTX: instruction assembly for function '_Z24bpnn_adjust_weights_cudaPfiS_iS_S_'...   done.
GPGPU-Sim PTX: finding reconvergence points for '_Z24bpnn_adjust_weights_cudaPfiS_iS_S_'...
GPGPU-Sim PTX: Finding dominators for '_Z24bpnn_adjust_weights_cudaPfiS_iS_S_'...
GPGPU-Sim PTX: Finding immediate dominators for '_Z24bpnn_adjust_weights_cudaPfiS_iS_S_'...
GPGPU-Sim PTX: Finding postdominators for '_Z24bpnn_adjust_weights_cudaPfiS_iS_S_'...
GPGPU-Sim PTX: Finding immediate postdominators for '_Z24bpnn_adjust_weights_cudaPfiS_iS_S_'...
GPGPU-Sim PTX: pre-decoding instructions for '_Z24bpnn_adjust_weights_cudaPfiS_iS_S_'...
GPGPU-Sim PTX: reconvergence points for _Z24bpnn_adjust_weights_cudaPfiS_iS_S_...
GPGPU-Sim PTX:  1 (potential) branch divergence @  PC=0x470 (_1.ptx:210) @%p1 bra BB1_2;
GPGPU-Sim PTX:    immediate post dominator      @  PC=0x530 (_1.ptx:237) ret;
GPGPU-Sim PTX: ... end of reconvergence points for _Z24bpnn_adjust_weights_cudaPfiS_iS_S_
GPGPU-Sim PTX: ... done pre-decoding instructions for '_Z24bpnn_adjust_weights_cudaPfiS_iS_S_'.
GPGPU-Sim PTX: finished parsing EMBEDDED .ptx file _1.ptx
Adding _cuobjdump_1.ptx with cubin handle 1
GPGPU-Sim PTX: extracting embedded .ptx to temporary file "_ptx_heHLbb"
Running: cat _ptx_heHLbb | sed 's/.version 1.5/.version 1.4/' | sed 's/, texmode_independent//' | sed 's/\(\.extern \.const\[1\] .b8 \w\+\)\[\]/\1\[1\]/' | sed 's/const\[.\]/const\[0\]/g' > _ptx2_i3FiIh
GPGPU-Sim PTX: generating ptxinfo using "$CUDA_INSTALL_PATH/bin/ptxas --gpu-name=sm_20 -v _ptx2_i3FiIh --output-file  /dev/null 2> _ptx_heHLbbinfo"
GPGPU-Sim PTX: Kernel '_Z24bpnn_adjust_weights_cudaPfiS_iS_S_' : regs=22, lmem=0, smem=0, cmem=80
GPGPU-Sim PTX: Kernel '_Z22bpnn_layerforward_CUDAPfS_S_S_ii' : regs=11, lmem=0, smem=1088, cmem=72
GPGPU-Sim PTX: removing ptxinfo using "rm -f _ptx_heHLbb _ptx2_i3FiIh _ptx_heHLbbinfo"
GPGPU-Sim PTX: loading globals with explicit initializers... 
GPGPU-Sim PTX: finished loading globals (0 bytes total).
GPGPU-Sim PTX: loading constants with explicit initializers...  done.
GPGPU-Sim PTX: __cudaRegisterFunction _Z22bpnn_layerforward_CUDAPfS_S_S_ii : hostFun 0x0x402c00, fat_cubin_handle = 1
Random number generator seed: 7
Input layer size : 131056
Starting training kernel
Performing GPU computation

GPGPU-Sim PTX: cudaLaunch for 0x0x402c00 (mode=performance simulation) on stream 0
GPGPU-Sim PTX: pushing kernel '_Z22bpnn_layerforward_CUDAPfS_S_S_ii' to stream 0, gridDim= (1,8191,1) blockDim = (16,16,1) 
GPGPU-Sim uArch: Shader 1 bind to kernel 1 '_Z22bpnn_layerforward_CUDAPfS_S_S_ii'
GPGPU-Sim uArch: CTA/core = 8, limited by: threads
GPGPU-Sim uArch: Shader 2 bind to kernel 1 '_Z22bpnn_layerforward_CUDAPfS_S_S_ii'
GPGPU-Sim uArch: Shader 3 bind to kernel 1 '_Z22bpnn_layerforward_CUDAPfS_S_S_ii'
GPGPU-Sim uArch: Shader 4 bind to kernel 1 '_Z22bpnn_layerforward_CUDAPfS_S_S_ii'
GPGPU-Sim uArch: Shader 5 bind to kernel 1 '_Z22bpnn_layerforward_CUDAPfS_S_S_ii'
GPGPU-Sim uArch: Shader 6 bind to kernel 1 '_Z22bpnn_layerforward_CUDAPfS_S_S_ii'
GPGPU-Sim uArch: Shader 7 bind to kernel 1 '_Z22bpnn_layerforward_CUDAPfS_S_S_ii'
GPGPU-Sim uArch: Shader 8 bind to kernel 1 '_Z22bpnn_layerforward_CUDAPfS_S_S_ii'
GPGPU-Sim uArch: Shader 9 bind to kernel 1 '_Z22bpnn_layerforward_CUDAPfS_S_S_ii'
GPGPU-Sim uArch: Shader 10 bind to kernel 1 '_Z22bpnn_layerforward_CUDAPfS_S_S_ii'
GPGPU-Sim uArch: Shader 11 bind to kernel 1 '_Z22bpnn_layerforward_CUDAPfS_S_S_ii'
GPGPU-Sim uArch: Shader 12 bind to kernel 1 '_Z22bpnn_layerforward_CUDAPfS_S_S_ii'
GPGPU-Sim uArch: Shader 13 bind to kernel 1 '_Z22bpnn_layerforward_CUDAPfS_S_S_ii'
GPGPU-Sim uArch: Shader 14 bind to kernel 1 '_Z22bpnn_layerforward_CUDAPfS_S_S_ii'
GPGPU-Sim uArch: Shader 15 bind to kernel 1 '_Z22bpnn_layerforward_CUDAPfS_S_S_ii'
GPGPU-Sim uArch: Shader 16 bind to kernel 1 '_Z22bpnn_layerforward_CUDAPfS_S_S_ii'
GPGPU-Sim uArch: Shader 17 bind to kernel 1 '_Z22bpnn_layerforward_CUDAPfS_S_S_ii'
GPGPU-Sim uArch: Shader 18 bind to kernel 1 '_Z22bpnn_layerforward_CUDAPfS_S_S_ii'
GPGPU-Sim uArch: Shader 19 bind to kernel 1 '_Z22bpnn_layerforward_CUDAPfS_S_S_ii'
GPGPU-Sim uArch: Shader 20 bind to kernel 1 '_Z22bpnn_layerforward_CUDAPfS_S_S_ii'
GPGPU-Sim uArch: Shader 21 bind to kernel 1 '_Z22bpnn_layerforward_CUDAPfS_S_S_ii'
GPGPU-Sim uArch: Shader 22 bind to kernel 1 '_Z22bpnn_layerforward_CUDAPfS_S_S_ii'
GPGPU-Sim uArch: Shader 23 bind to kernel 1 '_Z22bpnn_layerforward_CUDAPfS_S_S_ii'
GPGPU-Sim uArch: Shader 24 bind to kernel 1 '_Z22bpnn_layerforward_CUDAPfS_S_S_ii'
GPGPU-Sim uArch: Shader 25 bind to kernel 1 '_Z22bpnn_layerforward_CUDAPfS_S_S_ii'
GPGPU-Sim uArch: Shader 26 bind to kernel 1 '_Z22bpnn_layerforward_CUDAPfS_S_S_ii'
GPGPU-Sim uArch: Shader 27 bind to kernel 1 '_Z22bpnn_layerforward_CUDAPfS_S_S_ii'
GPGPU-Sim uArch: Shader 0 bind to kernel 1 '_Z22bpnn_layerforward_CUDAPfS_S_S_ii'
GPGPU-Sim uArch: Shader 17 bind to kernel 1 '_Z22bpnn_layerforward_CUDAPfS_S_S_ii'
GPGPU-Sim uArch: Shader 18 bind to kernel 1 '_Z22bpnn_layerforward_CUDAPfS_S_S_ii'
GPGPU-Sim uArch: Shader 19 bind to kernel 1 '_Z22bpnn_layerforward_CUDAPfS_S_S_ii'
GPGPU-Sim uArch: Shader 20 bind to kernel 1 '_Z22bpnn_layerforward_CUDAPfS_S_S_ii'
GPGPU-Sim uArch: Shader 21 bind to kernel 1 '_Z22bpnn_layerforward_CUDAPfS_S_S_ii'
GPGPU-Sim uArch: Shader 22 bind to kernel 1 '_Z22bpnn_layerforward_CUDAPfS_S_S_ii'
GPGPU-Sim uArch: Shader 23 bind to kernel 1 '_Z22bpnn_layerforward_CUDAPfS_S_S_ii'
GPGPU-Sim uArch: Shader 24 bind to kernel 1 '_Z22bpnn_layerforward_CUDAPfS_S_S_ii'
GPGPU-Sim uArch: Shader 25 bind to kernel 1 '_Z22bpnn_layerforward_CUDAPfS_S_S_ii'
GPGPU-Sim uArch: Shader 26 bind to kernel 1 '_Z22bpnn_layerforward_CUDAPfS_S_S_ii'
GPGPU-Sim uArch: Shader 27 bind to kernel 1 '_Z22bpnn_layerforward_CUDAPfS_S_S_ii'
GPGPU-Sim uArch: Shader 0 bind to kernel 1 '_Z22bpnn_layerforward_CUDAPfS_S_S_ii'
GPGPU-Sim uArch: Shader 1 bind to kernel 1 '_Z22bpnn_layerforward_CUDAPfS_S_S_ii'
GPGPU-Sim uArch: Shader 2 bind to kernel 1 '_Z22bpnn_layerforward_CUDAPfS_S_S_ii'
GPGPU-Sim uArch: Shader 3 bind to kernel 1 '_Z22bpnn_layerforward_CUDAPfS_S_S_ii'
GPGPU-Sim uArch: Shader 4 bind to kernel 1 '_Z22bpnn_layerforward_CUDAPfS_S_S_ii'
GPGPU-Sim uArch: Shader 5 bind to kernel 1 '_Z22bpnn_layerforward_CUDAPfS_S_S_ii'
GPGPU-Sim uArch: Shader 6 bind to kernel 1 '_Z22bpnn_layerforward_CUDAPfS_S_S_ii'
GPGPU-Sim uArch: Shader 7 bind to kernel 1 '_Z22bpnn_layerforward_CUDAPfS_S_S_ii'
GPGPU-Sim uArch: Shader 8 bind to kernel 1 '_Z22bpnn_layerforward_CUDAPfS_S_S_ii'
GPGPU-Sim uArch: Shader 9 bind to kernel 1 '_Z22bpnn_layerforward_CUDAPfS_S_S_ii'
GPGPU-Sim uArch: Shader 10 bind to kernel 1 '_Z22bpnn_layerforward_CUDAPfS_S_S_ii'
GPGPU-Sim uArch: Shader 11 bind to kernel 1 '_Z22bpnn_layerforward_CUDAPfS_S_S_ii'
GPGPU-Sim uArch: Shader 12 bind to kernel 1 '_Z22bpnn_layerforward_CUDAPfS_S_S_ii'
GPGPU-Sim uArch: Shader 13 bind to kernel 1 '_Z22bpnn_layerforward_CUDAPfS_S_S_ii'
GPGPU-Sim uArch: Shader 14 bind to kernel 1 '_Z22bpnn_layerforward_CUDAPfS_S_S_ii'
GPGPU-Sim uArch: Shader 15 bind to kernel 1 '_Z22bpnn_layerforward_CUDAPfS_S_S_ii'
GPGPU-Sim uArch: Shader 16 bind to kernel 1 '_Z22bpnn_layerforward_CUDAPfS_S_S_ii'
GPGPU-Sim uArch: Shader 5 bind to kernel 1 '_Z22bpnn_layerforward_CUDAPfS_S_S_ii'
GPGPU-Sim uArch: Shader 8 bind to kernel 1 '_Z22bpnn_layerforward_CUDAPfS_S_S_ii'
GPGPU-Sim uArch: Shader 9 bind to kernel 1 '_Z22bpnn_layerforward_CUDAPfS_S_S_ii'
GPGPU-Sim uArch: Shader 14 bind to kernel 1 '_Z22bpnn_layerforward_CUDAPfS_S_S_ii'
GPGPU-Sim uArch: Shader 15 bind to kernel 1 '_Z22bpnn_layerforward_CUDAPfS_S_S_ii'
GPGPU-Sim uArch: Shader 17 bind to kernel 1 '_Z22bpnn_layerforward_CUDAPfS_S_S_ii'
GPGPU-Sim uArch: Shader 18 bind to kernel 1 '_Z22bpnn_layerforward_CUDAPfS_S_S_ii'
GPGPU-Sim uArch: Shader 19 bind to kernel 1 '_Z22bpnn_layerforward_CUDAPfS_S_S_ii'
GPGPU-Sim uArch: Shader 21 bind to kernel 1 '_Z22bpnn_layerforward_CUDAPfS_S_S_ii'
GPGPU-Sim uArch: Shader 22 bind to kernel 1 '_Z22bpnn_layerforward_CUDAPfS_S_S_ii'
GPGPU-Sim uArch: Shader 23 bind to kernel 1 '_Z22bpnn_layerforward_CUDAPfS_S_S_ii'
GPGPU-Sim uArch: Shader 26 bind to kernel 1 '_Z22bpnn_layerforward_CUDAPfS_S_S_ii'
GPGPU-Sim uArch: Shader 11 bind to kernel 1 '_Z22bpnn_layerforward_CUDAPfS_S_S_ii'
GPGPU-Sim uArch: Shader 16 bind to kernel 1 '_Z22bpnn_layerforward_CUDAPfS_S_S_ii'
GPGPU-Sim uArch: Shader 3 bind to kernel 1 '_Z22bpnn_layerforward_CUDAPfS_S_S_ii'
GPGPU-Sim uArch: Shader 4 bind to kernel 1 '_Z22bpnn_layerforward_CUDAPfS_S_S_ii'
GPGPU-Sim uArch: Shader 5 bind to kernel 1 '_Z22bpnn_layerforward_CUDAPfS_S_S_ii'
GPGPU-Sim uArch: Shader 6 bind to kernel 1 '_Z22bpnn_layerforward_CUDAPfS_S_S_ii'
GPGPU-Sim uArch: Shader 7 bind to kernel 1 '_Z22bpnn_layerforward_CUDAPfS_S_S_ii'
GPGPU-Sim uArch: Shader 8 bind to kernel 1 '_Z22bpnn_layerforward_CUDAPfS_S_S_ii'
GPGPU-Sim uArch: Shader 9 bind to kernel 1 '_Z22bpnn_layerforward_CUDAPfS_S_S_ii'
GPGPU-Sim uArch: Shader 10 bind to kernel 1 '_Z22bpnn_layerforward_CUDAPfS_S_S_ii'
GPGPU-Sim uArch: Shader 11 bind to kernel 1 '_Z22bpnn_layerforward_CUDAPfS_S_S_ii'
GPGPU-Sim uArch: Shader 12 bind to kernel 1 '_Z22bpnn_layerforward_CUDAPfS_S_S_ii'
GPGPU-Sim uArch: Shader 13 bind to kernel 1 '_Z22bpnn_layerforward_CUDAPfS_S_S_ii'
GPGPU-Sim uArch: Shader 14 bind to kernel 1 '_Z22bpnn_layerforward_CUDAPfS_S_S_ii'
GPGPU-Sim uArch: Shader 15 bind to kernel 1 '_Z22bpnn_layerforward_CUDAPfS_S_S_ii'
GPGPU-Sim uArch: Shader 16 bind to kernel 1 '_Z22bpnn_layerforward_CUDAPfS_S_S_ii'
GPGPU-Sim uArch: Shader 17 bind to kernel 1 '_Z22bpnn_layerforward_CUDAPfS_S_S_ii'
GPGPU-Sim uArch: Shader 18 bind to kernel 1 '_Z22bpnn_layerforward_CUDAPfS_S_S_ii'
GPGPU-Sim uArch: Shader 19 bind to kernel 1 '_Z22bpnn_layerforward_CUDAPfS_S_S_ii'
GPGPU-Sim uArch: Shader 20 bind to kernel 1 '_Z22bpnn_layerforward_CUDAPfS_S_S_ii'
GPGPU-Sim uArch: Shader 21 bind to kernel 1 '_Z22bpnn_layerforward_CUDAPfS_S_S_ii'
GPGPU-Sim uArch: Shader 22 bind to kernel 1 '_Z22bpnn_layerforward_CUDAPfS_S_S_ii'
GPGPU-Sim uArch: Shader 23 bind to kernel 1 '_Z22bpnn_layerforward_CUDAPfS_S_S_ii'
GPGPU-Sim uArch: Shader 24 bind to kernel 1 '_Z22bpnn_layerforward_CUDAPfS_S_S_ii'
GPGPU-Sim uArch: Shader 25 bind to kernel 1 '_Z22bpnn_layerforward_CUDAPfS_S_S_ii'
GPGPU-Sim uArch: Shader 26 bind to kernel 1 '_Z22bpnn_layerforward_CUDAPfS_S_S_ii'
GPGPU-Sim uArch: Shader 27 bind to kernel 1 '_Z22bpnn_layerforward_CUDAPfS_S_S_ii'
GPGPU-Sim uArch: Shader 0 bind to kernel 1 '_Z22bpnn_layerforward_CUDAPfS_S_S_ii'
GPGPU-Sim uArch: Shader 1 bind to kernel 1 '_Z22bpnn_layerforward_CUDAPfS_S_S_ii'
GPGPU-Sim uArch: Shader 2 bind to kernel 1 '_Z22bpnn_layerforward_CUDAPfS_S_S_ii'
GPGPU-Sim uArch: Shader 3 bind to kernel 1 '_Z22bpnn_layerforward_CUDAPfS_S_S_ii'
GPGPU-Sim uArch: Shader 4 bind to kernel 1 '_Z22bpnn_layerforward_CUDAPfS_S_S_ii'
GPGPU-Sim uArch: Shader 5 bind to kernel 1 '_Z22bpnn_layerforward_CUDAPfS_S_S_ii'
GPGPU-Sim uArch: Shader 6 bind to kernel 1 '_Z22bpnn_layerforward_CUDAPfS_S_S_ii'
GPGPU-Sim uArch: Shader 7 bind to kernel 1 '_Z22bpnn_layerforward_CUDAPfS_S_S_ii'
GPGPU-Sim uArch: Shader 8 bind to kernel 1 '_Z22bpnn_layerforward_CUDAPfS_S_S_ii'
GPGPU-Sim uArch: Shader 9 bind to kernel 1 '_Z22bpnn_layerforward_CUDAPfS_S_S_ii'
GPGPU-Sim uArch: Shader 10 bind to kernel 1 '_Z22bpnn_layerforward_CUDAPfS_S_S_ii'
GPGPU-Sim uArch: Shader 11 bind to kernel 1 '_Z22bpnn_layerforward_CUDAPfS_S_S_ii'
GPGPU-Sim uArch: Shader 12 bind to kernel 1 '_Z22bpnn_layerforward_CUDAPfS_S_S_ii'
GPGPU-Sim uArch: Shader 13 bind to kernel 1 '_Z22bpnn_layerforward_CUDAPfS_S_S_ii'
GPGPU-Sim uArch: Shader 14 bind to kernel 1 '_Z22bpnn_layerforward_CUDAPfS_S_S_ii'
GPGPU-Sim uArch: Shader 15 bind to kernel 1 '_Z22bpnn_layerforward_CUDAPfS_S_S_ii'
GPGPU-Sim uArch: Shader 16 bind to kernel 1 '_Z22bpnn_layerforward_CUDAPfS_S_S_ii'
GPGPU-Sim uArch: Shader 17 bind to kernel 1 '_Z22bpnn_layerforward_CUDAPfS_S_S_ii'
GPGPU-Sim uArch: Shader 18 bind to kernel 1 '_Z22bpnn_layerforward_CUDAPfS_S_S_ii'
GPGPU-Sim uArch: Shader 19 bind to kernel 1 '_Z22bpnn_layerforward_CUDAPfS_S_S_ii'
GPGPU-Sim uArch: Shader 20 bind to kernel 1 '_Z22bpnn_layerforward_CUDAPfS_S_S_ii'
GPGPU-Sim uArch: Shader 21 bind to kernel 1 '_Z22bpnn_layerforward_CUDAPfS_S_S_ii'
GPGPU-Sim uArch: Shader 22 bind to kernel 1 '_Z22bpnn_layerforward_CUDAPfS_S_S_ii'
GPGPU-Sim uArch: Shader 23 bind to kernel 1 '_Z22bpnn_layerforward_CUDAPfS_S_S_ii'
GPGPU-Sim uArch: Shader 24 bind to kernel 1 '_Z22bpnn_layerforward_CUDAPfS_S_S_ii'
GPGPU-Sim uArch: Shader 25 bind to kernel 1 '_Z22bpnn_layerforward_CUDAPfS_S_S_ii'
GPGPU-Sim uArch: Shader 26 bind to kernel 1 '_Z22bpnn_layerforward_CUDAPfS_S_S_ii'
GPGPU-Sim uArch: Shader 27 bind to kernel 1 '_Z22bpnn_layerforward_CUDAPfS_S_S_ii'
GPGPU-Sim uArch: Shader 0 bind to kernel 1 '_Z22bpnn_layerforward_CUDAPfS_S_S_ii'
GPGPU-Sim uArch: Shader 1 bind to kernel 1 '_Z22bpnn_layerforward_CUDAPfS_S_S_ii'
GPGPU-Sim uArch: Shader 2 bind to kernel 1 '_Z22bpnn_layerforward_CUDAPfS_S_S_ii'
GPGPU-Sim uArch: Shader 25 bind to kernel 1 '_Z22bpnn_layerforward_CUDAPfS_S_S_ii'
GPGPU-Sim uArch: Shader 1 bind to kernel 1 '_Z22bpnn_layerforward_CUDAPfS_S_S_ii'
GPGPU-Sim uArch: Shader 6 bind to kernel 1 '_Z22bpnn_layerforward_CUDAPfS_S_S_ii'
GPGPU-Sim uArch: Shader 7 bind to kernel 1 '_Z22bpnn_layerforward_CUDAPfS_S_S_ii'
GPGPU-Sim uArch: Shader 8 bind to kernel 1 '_Z22bpnn_layerforward_CUDAPfS_S_S_ii'
GPGPU-Sim uArch: Shader 10 bind to kernel 1 '_Z22bpnn_layerforward_CUDAPfS_S_S_ii'
GPGPU-Sim uArch: Shader 11 bind to kernel 1 '_Z22bpnn_layerforward_CUDAPfS_S_S_ii'
GPGPU-Sim uArch: Shader 18 bind to kernel 1 '_Z22bpnn_layerforward_CUDAPfS_S_S_ii'
GPGPU-Sim uArch: Shader 23 bind to kernel 1 '_Z22bpnn_layerforward_CUDAPfS_S_S_ii'
GPGPU-Sim uArch: Shader 14 bind to kernel 1 '_Z22bpnn_layerforward_CUDAPfS_S_S_ii'
GPGPU-Sim uArch: Shader 15 bind to kernel 1 '_Z22bpnn_layerforward_CUDAPfS_S_S_ii'
GPGPU-Sim uArch: Shader 16 bind to kernel 1 '_Z22bpnn_layerforward_CUDAPfS_S_S_ii'
GPGPU-Sim uArch: Shader 17 bind to kernel 1 '_Z22bpnn_layerforward_CUDAPfS_S_S_ii'
GPGPU-Sim uArch: Shader 18 bind to kernel 1 '_Z22bpnn_layerforward_CUDAPfS_S_S_ii'
GPGPU-Sim uArch: Shader 19 bind to kernel 1 '_Z22bpnn_layerforward_CUDAPfS_S_S_ii'
GPGPU-Sim uArch: Shader 20 bind to kernel 1 '_Z22bpnn_layerforward_CUDAPfS_S_S_ii'
GPGPU-Sim uArch: Shader 21 bind to kernel 1 '_Z22bpnn_layerforward_CUDAPfS_S_S_ii'
GPGPU-Sim uArch: Shader 22 bind to kernel 1 '_Z22bpnn_layerforward_CUDAPfS_S_S_ii'
GPGPU-Sim uArch: Shader 23 bind to kernel 1 '_Z22bpnn_layerforward_CUDAPfS_S_S_ii'
GPGPU-Sim uArch: Shader 24 bind to kernel 1 '_Z22bpnn_layerforward_CUDAPfS_S_S_ii'
GPGPU-Sim uArch: Shader 25 bind to kernel 1 '_Z22bpnn_layerforward_CUDAPfS_S_S_ii'
GPGPU-Sim uArch: Shader 26 bind to kernel 1 '_Z22bpnn_layerforward_CUDAPfS_S_S_ii'
GPGPU-Sim uArch: Shader 27 bind to kernel 1 '_Z22bpnn_layerforward_CUDAPfS_S_S_ii'
GPGPU-Sim uArch: Shader 0 bind to kernel 1 '_Z22bpnn_layerforward_CUDAPfS_S_S_ii'
GPGPU-Sim uArch: Shader 1 bind to kernel 1 '_Z22bpnn_layerforward_CUDAPfS_S_S_ii'
GPGPU-Sim uArch: Shader 2 bind to kernel 1 '_Z22bpnn_layerforward_CUDAPfS_S_S_ii'
GPGPU-Sim uArch: Shader 3 bind to kernel 1 '_Z22bpnn_layerforward_CUDAPfS_S_S_ii'
GPGPU-Sim uArch: Shader 4 bind to kernel 1 '_Z22bpnn_layerforward_CUDAPfS_S_S_ii'
GPGPU-Sim uArch: Shader 5 bind to kernel 1 '_Z22bpnn_layerforward_CUDAPfS_S_S_ii'
GPGPU-Sim uArch: Shader 6 bind to kernel 1 '_Z22bpnn_layerforward_CUDAPfS_S_S_ii'
GPGPU-Sim uArch: Shader 7 bind to kernel 1 '_Z22bpnn_layerforward_CUDAPfS_S_S_ii'
GPGPU-Sim uArch: Shader 8 bind to kernel 1 '_Z22bpnn_layerforward_CUDAPfS_S_S_ii'
GPGPU-Sim uArch: Shader 9 bind to kernel 1 '_Z22bpnn_layerforward_CUDAPfS_S_S_ii'
GPGPU-Sim uArch: Shader 10 bind to kernel 1 '_Z22bpnn_layerforward_CUDAPfS_S_S_ii'
GPGPU-Sim uArch: Shader 11 bind to kernel 1 '_Z22bpnn_layerforward_CUDAPfS_S_S_ii'
GPGPU-Sim uArch: Shader 12 bind to kernel 1 '_Z22bpnn_layerforward_CUDAPfS_S_S_ii'
GPGPU-Sim uArch: Shader 13 bind to kernel 1 '_Z22bpnn_layerforward_CUDAPfS_S_S_ii'
GPGPU-Sim uArch: Shader 26 bind to kernel 1 '_Z22bpnn_layerforward_CUDAPfS_S_S_ii'
GPGPU-Sim uArch: Shader 27 bind to kernel 1 '_Z22bpnn_layerforward_CUDAPfS_S_S_ii'
GPGPU-Sim uArch: Shader 2 bind to kernel 1 '_Z22bpnn_layerforward_CUDAPfS_S_S_ii'
GPGPU-Sim uArch: Shader 3 bind to kernel 1 '_Z22bpnn_layerforward_CUDAPfS_S_S_ii'
GPGPU-Sim uArch: Shader 7 bind to kernel 1 '_Z22bpnn_layerforward_CUDAPfS_S_S_ii'
GPGPU-Sim uArch: Shader 5 bind to kernel 1 '_Z22bpnn_layerforward_CUDAPfS_S_S_ii'
GPGPU-Sim uArch: Shader 8 bind to kernel 1 '_Z22bpnn_layerforward_CUDAPfS_S_S_ii'
GPGPU-Sim uArch: Shader 11 bind to kernel 1 '_Z22bpnn_layerforward_CUDAPfS_S_S_ii'
GPGPU-Sim uArch: Shader 15 bind to kernel 1 '_Z22bpnn_layerforward_CUDAPfS_S_S_ii'
GPGPU-Sim uArch: Shader 22 bind to kernel 1 '_Z22bpnn_layerforward_CUDAPfS_S_S_ii'
GPGPU-Sim uArch: Shader 12 bind to kernel 1 '_Z22bpnn_layerforward_CUDAPfS_S_S_ii'
GPGPU-Sim uArch: Shader 14 bind to kernel 1 '_Z22bpnn_layerforward_CUDAPfS_S_S_ii'
GPGPU-Sim uArch: Shader 15 bind to kernel 1 '_Z22bpnn_layerforward_CUDAPfS_S_S_ii'
GPGPU-Sim uArch: Shader 18 bind to kernel 1 '_Z22bpnn_layerforward_CUDAPfS_S_S_ii'
GPGPU-Sim uArch: Shader 19 bind to kernel 1 '_Z22bpnn_layerforward_CUDAPfS_S_S_ii'
GPGPU-Sim uArch: Shader 20 bind to kernel 1 '_Z22bpnn_layerforward_CUDAPfS_S_S_ii'
GPGPU-Sim uArch: Shader 21 bind to kernel 1 '_Z22bpnn_layerforward_CUDAPfS_S_S_ii'
GPGPU-Sim uArch: Shader 22 bind to kernel 1 '_Z22bpnn_layerforward_CUDAPfS_S_S_ii'
GPGPU-Sim uArch: Shader 23 bind to kernel 1 '_Z22bpnn_layerforward_CUDAPfS_S_S_ii'
GPGPU-Sim uArch: Shader 24 bind to kernel 1 '_Z22bpnn_layerforward_CUDAPfS_S_S_ii'
GPGPU-Sim uArch: Shader 25 bind to kernel 1 '_Z22bpnn_layerforward_CUDAPfS_S_S_ii'
GPGPU-Sim uArch: Shader 26 bind to kernel 1 '_Z22bpnn_layerforward_CUDAPfS_S_S_ii'
GPGPU-Sim uArch: Shader 27 bind to kernel 1 '_Z22bpnn_layerforward_CUDAPfS_S_S_ii'
GPGPU-Sim uArch: Shader 1 bind to kernel 1 '_Z22bpnn_layerforward_CUDAPfS_S_S_ii'
GPGPU-Sim uArch: Shader 2 bind to kernel 1 '_Z22bpnn_layerforward_CUDAPfS_S_S_ii'
GPGPU-Sim uArch: Shader 3 bind to kernel 1 '_Z22bpnn_layerforward_CUDAPfS_S_S_ii'
GPGPU-Sim uArch: Shader 4 bind to kernel 1 '_Z22bpnn_layerforward_CUDAPfS_S_S_ii'
GPGPU-Sim uArch: Shader 7 bind to kernel 1 '_Z22bpnn_layerforward_CUDAPfS_S_S_ii'
GPGPU-Sim uArch: Shader 8 bind to kernel 1 '_Z22bpnn_layerforward_CUDAPfS_S_S_ii'
GPGPU-Sim uArch: Shader 9 bind to kernel 1 '_Z22bpnn_layerforward_CUDAPfS_S_S_ii'
GPGPU-Sim uArch: Shader 13 bind to kernel 1 '_Z22bpnn_layerforward_CUDAPfS_S_S_ii'
GPGPU-Sim uArch: Shader 16 bind to kernel 1 '_Z22bpnn_layerforward_CUDAPfS_S_S_ii'
GPGPU-Sim uArch: Shader 17 bind to kernel 1 '_Z22bpnn_layerforward_CUDAPfS_S_S_ii'
GPGPU-Sim uArch: Shader 0 bind to kernel 1 '_Z22bpnn_layerforward_CUDAPfS_S_S_ii'
Destroy streams for kernel 1: size 0
kernel_name = _Z22bpnn_layerforward_CUDAPfS_S_S_ii 
kernel_launch_uid = 1 
gpu_sim_cycle = 1393139
gpu_sim_insn = 224892096
gpu_ipc =     161.4283
gpu_tot_sim_cycle = 1615289
gpu_tot_sim_insn = 224892096
gpu_tot_ipc =     139.2272
gpu_tot_issued_cta = 8191
max_total_param_size = 0
gpu_stall_dramfull = 75947
gpu_stall_icnt2sh    = 275735
partiton_reqs_in_parallel = 30573111
partiton_reqs_in_parallel_total    = 0
partiton_level_parallism =      21.9455
partiton_level_parallism_total  =      18.9273
partiton_reqs_in_parallel_util = 30573111
partiton_reqs_in_parallel_util_total    = 0
gpu_sim_cycle_parition_util = 1391006
gpu_tot_sim_cycle_parition_util    = 0
partiton_level_parallism_util =      21.9791
partiton_level_parallism_util_total  =      21.9791
partiton_replys_in_parallel = 397459
partiton_replys_in_parallel_total    = 0
L2_BW  =      27.0416 GB/Sec
L2_BW_total  =      23.3226 GB/Sec
gpu_total_sim_rate=119496

========= Core cache stats =========
L1I_cache:
	L1I_total_cache_accesses = 4677061
	L1I_total_cache_misses = 3489
	L1I_total_cache_miss_rate = 0.0007
	L1I_total_cache_pending_hits = 0
	L1I_total_cache_reservation_fails = 6846
L1D_cache:
	L1D_cache_core[0]: Access = 0, Miss = 0, Miss_rate = -nan, Pending_hits = 0, Reservation_fails = 0
	L1D_cache_core[1]: Access = 0, Miss = 0, Miss_rate = -nan, Pending_hits = 0, Reservation_fails = 0
	L1D_cache_core[2]: Access = 0, Miss = 0, Miss_rate = -nan, Pending_hits = 0, Reservation_fails = 0
	L1D_cache_core[3]: Access = 0, Miss = 0, Miss_rate = -nan, Pending_hits = 0, Reservation_fails = 0
	L1D_cache_core[4]: Access = 0, Miss = 0, Miss_rate = -nan, Pending_hits = 0, Reservation_fails = 0
	L1D_cache_core[5]: Access = 0, Miss = 0, Miss_rate = -nan, Pending_hits = 0, Reservation_fails = 0
	L1D_cache_core[6]: Access = 0, Miss = 0, Miss_rate = -nan, Pending_hits = 0, Reservation_fails = 0
	L1D_cache_core[7]: Access = 0, Miss = 0, Miss_rate = -nan, Pending_hits = 0, Reservation_fails = 0
	L1D_cache_core[8]: Access = 0, Miss = 0, Miss_rate = -nan, Pending_hits = 0, Reservation_fails = 0
	L1D_cache_core[9]: Access = 0, Miss = 0, Miss_rate = -nan, Pending_hits = 0, Reservation_fails = 0
	L1D_cache_core[10]: Access = 0, Miss = 0, Miss_rate = -nan, Pending_hits = 0, Reservation_fails = 0
	L1D_cache_core[11]: Access = 0, Miss = 0, Miss_rate = -nan, Pending_hits = 0, Reservation_fails = 0
	L1D_cache_core[12]: Access = 0, Miss = 0, Miss_rate = -nan, Pending_hits = 0, Reservation_fails = 0
	L1D_cache_core[13]: Access = 0, Miss = 0, Miss_rate = -nan, Pending_hits = 0, Reservation_fails = 0
	L1D_cache_core[14]: Access = 0, Miss = 0, Miss_rate = -nan, Pending_hits = 0, Reservation_fails = 0
	L1D_cache_core[15]: Access = 0, Miss = 0, Miss_rate = -nan, Pending_hits = 0, Reservation_fails = 0
	L1D_cache_core[16]: Access = 0, Miss = 0, Miss_rate = -nan, Pending_hits = 0, Reservation_fails = 0
	L1D_cache_core[17]: Access = 0, Miss = 0, Miss_rate = -nan, Pending_hits = 0, Reservation_fails = 0
	L1D_cache_core[18]: Access = 0, Miss = 0, Miss_rate = -nan, Pending_hits = 0, Reservation_fails = 0
	L1D_cache_core[19]: Access = 0, Miss = 0, Miss_rate = -nan, Pending_hits = 0, Reservation_fails = 0
	L1D_cache_core[20]: Access = 0, Miss = 0, Miss_rate = -nan, Pending_hits = 0, Reservation_fails = 0
	L1D_cache_core[21]: Access = 0, Miss = 0, Miss_rate = -nan, Pending_hits = 0, Reservation_fails = 0
	L1D_cache_core[22]: Access = 0, Miss = 0, Miss_rate = -nan, Pending_hits = 0, Reservation_fails = 0
	L1D_cache_core[23]: Access = 0, Miss = 0, Miss_rate = -nan, Pending_hits = 0, Reservation_fails = 0
	L1D_cache_core[24]: Access = 0, Miss = 0, Miss_rate = -nan, Pending_hits = 0, Reservation_fails = 0
	L1D_cache_core[25]: Access = 0, Miss = 0, Miss_rate = -nan, Pending_hits = 0, Reservation_fails = 0
	L1D_cache_core[26]: Access = 0, Miss = 0, Miss_rate = -nan, Pending_hits = 0, Reservation_fails = 0
	L1D_cache_core[27]: Access = 0, Miss = 0, Miss_rate = -nan, Pending_hits = 0, Reservation_fails = 0
	L1D_total_cache_accesses = 0
	L1D_total_cache_misses = 0
	L1D_total_cache_pending_hits = 0
	L1D_total_cache_reservation_fails = 0
	L1D_cache_data_port_util = 0.000
	L1D_cache_fill_port_util = 0.000
L1C_cache:
	L1C_total_cache_accesses = 262112
	L1C_total_cache_misses = 1792
	L1C_total_cache_miss_rate = 0.0068
	L1C_total_cache_pending_hits = 0
	L1C_total_cache_reservation_fails = 4886
L1T_cache:
	L1T_total_cache_accesses = 0
	L1T_total_cache_misses = 0
	L1T_total_cache_pending_hits = 0
	L1T_total_cache_reservation_fails = 0

Total_core_cache_stats:
	Total_core_cache_stats_breakdown[GLOBAL_ACC_R][HIT] = 0
	Total_core_cache_stats_breakdown[GLOBAL_ACC_R][HIT_RESERVED] = 0
	Total_core_cache_stats_breakdown[GLOBAL_ACC_R][MISS] = 0
	Total_core_cache_stats_breakdown[GLOBAL_ACC_R][RESERVATION_FAIL] = 0
	Total_core_cache_stats_breakdown[LOCAL_ACC_R][HIT] = 0
	Total_core_cache_stats_breakdown[LOCAL_ACC_R][HIT_RESERVED] = 0
	Total_core_cache_stats_breakdown[LOCAL_ACC_R][MISS] = 0
	Total_core_cache_stats_breakdown[LOCAL_ACC_R][RESERVATION_FAIL] = 0
	Total_core_cache_stats_breakdown[CONST_ACC_R][HIT] = 260320
	Total_core_cache_stats_breakdown[CONST_ACC_R][HIT_RESERVED] = 0
	Total_core_cache_stats_breakdown[CONST_ACC_R][MISS] = 1792
	Total_core_cache_stats_breakdown[CONST_ACC_R][RESERVATION_FAIL] = 4886
	Total_core_cache_stats_breakdown[TEXTURE_ACC_R][HIT] = 0
	Total_core_cache_stats_breakdown[TEXTURE_ACC_R][HIT_RESERVED] = 0
	Total_core_cache_stats_breakdown[TEXTURE_ACC_R][MISS] = 0
	Total_core_cache_stats_breakdown[TEXTURE_ACC_R][RESERVATION_FAIL] = 0
	Total_core_cache_stats_breakdown[GLOBAL_ACC_W][HIT] = 0
	Total_core_cache_stats_breakdown[GLOBAL_ACC_W][HIT_RESERVED] = 0
	Total_core_cache_stats_breakdown[GLOBAL_ACC_W][MISS] = 0
	Total_core_cache_stats_breakdown[GLOBAL_ACC_W][RESERVATION_FAIL] = 0
	Total_core_cache_stats_breakdown[LOCAL_ACC_W][HIT] = 0
	Total_core_cache_stats_breakdown[LOCAL_ACC_W][HIT_RESERVED] = 0
	Total_core_cache_stats_breakdown[LOCAL_ACC_W][MISS] = 0
	Total_core_cache_stats_breakdown[LOCAL_ACC_W][RESERVATION_FAIL] = 0
	Total_core_cache_stats_breakdown[L1_WRBK_ACC][HIT] = 0
	Total_core_cache_stats_breakdown[L1_WRBK_ACC][HIT_RESERVED] = 0
	Total_core_cache_stats_breakdown[L1_WRBK_ACC][MISS] = 0
	Total_core_cache_stats_breakdown[L1_WRBK_ACC][RESERVATION_FAIL] = 0
	Total_core_cache_stats_breakdown[L2_WRBK_ACC][HIT] = 0
	Total_core_cache_stats_breakdown[L2_WRBK_ACC][HIT_RESERVED] = 0
	Total_core_cache_stats_breakdown[L2_WRBK_ACC][MISS] = 0
	Total_core_cache_stats_breakdown[L2_WRBK_ACC][RESERVATION_FAIL] = 0
	Total_core_cache_stats_breakdown[INST_ACC_R][HIT] = 4673572
	Total_core_cache_stats_breakdown[INST_ACC_R][HIT_RESERVED] = 0
	Total_core_cache_stats_breakdown[INST_ACC_R][MISS] = 3489
	Total_core_cache_stats_breakdown[INST_ACC_R][RESERVATION_FAIL] = 6846
	Total_core_cache_stats_breakdown[L1_WR_ALLOC_R][HIT] = 0
	Total_core_cache_stats_breakdown[L1_WR_ALLOC_R][HIT_RESERVED] = 0
	Total_core_cache_stats_breakdown[L1_WR_ALLOC_R][MISS] = 0
	Total_core_cache_stats_breakdown[L1_WR_ALLOC_R][RESERVATION_FAIL] = 0
	Total_core_cache_stats_breakdown[L2_WR_ALLOC_R][HIT] = 0
	Total_core_cache_stats_breakdown[L2_WR_ALLOC_R][HIT_RESERVED] = 0
	Total_core_cache_stats_breakdown[L2_WR_ALLOC_R][MISS] = 0
	Total_core_cache_stats_breakdown[L2_WR_ALLOC_R][RESERVATION_FAIL] = 0
	Total_core_cache_stats_breakdown[CONST_ACC_R][TOTAL_ACCESS] = 262112
	Total_core_cache_stats_breakdown[INST_ACC_R][TOTAL_ACCESS] = 4677061
Shader 0 warp_id issue ditsribution:
warp_id:
0, 1, 2, 3, 4, 5, 6, 7, 8, 9, 10, 11, 12, 13, 14, 15, 16, 17, 18, 19, 20, 21, 22, 23, 24, 25, 26, 27, 28, 29, 30, 31, 32, 33, 34, 35, 36, 37, 38, 39, 40, 41, 42, 43, 44, 45, 46, 47, 48, 49, 50, 51, 52, 53, 54, 55, 56, 57, 58, 59, 60, 61, 62, 63, 
distro:
7038, 5583, 6064, 5578, 6577, 5575, 6111, 5611, 7037, 5568, 6061, 5569, 6569, 5568, 6100, 5606, 6861, 5434, 5911, 5433, 6409, 5433, 5953, 5466, 6500, 5146, 5599, 5141, 6074, 5142, 5641, 5176, 6502, 5143, 5596, 5142, 6066, 5129, 5628, 5167, 6141, 4858, 5289, 4849, 5725, 4849, 5322, 4882, 6137, 4856, 5284, 4856, 5723, 4848, 5317, 4882, 5779, 4573, 4976, 4567, 5395, 4567, 5011, 4590, 
gpgpu_n_tot_thrd_icount = 284391520
gpgpu_n_tot_w_icount = 8887235
gpgpu_n_stall_shd_mem = 282162
gpgpu_n_mem_read_local = 0
gpgpu_n_mem_write_local = 0
gpgpu_n_mem_read_global = 200679
gpgpu_n_mem_write_global = 196584
gpgpu_n_mem_texture = 0
gpgpu_n_mem_const = 28
gpgpu_n_load_insn  = 2227952
gpgpu_n_store_insn = 2227952
gpgpu_n_shmem_insn = 16644112
gpgpu_n_tex_insn = 0
gpgpu_n_const_mem_insn = 0
gpgpu_n_param_mem_insn = 8387584
gpgpu_n_shmem_bkconflict = 0
gpgpu_n_cache_bkconflict = 0
gpgpu_n_intrawarp_mshr_merge = 0
gpgpu_n_cmem_portconflict = 4886
gpgpu_stall_shd_mem[c_mem][bk_conf] = 4886
gpgpu_stall_shd_mem[c_mem][mshr_rc] = 0
gpgpu_stall_shd_mem[c_mem][icnt_rc] = 0
gpgpu_stall_shd_mem[c_mem][data_port_stall] = 0
gpgpu_stall_shd_mem[t_mem][mshr_rc] = 0
gpgpu_stall_shd_mem[t_mem][icnt_rc] = 0
gpgpu_stall_shd_mem[t_mem][data_port_stall] = 0
gpgpu_stall_shd_mem[s_mem][bk_conf] = 0
gpgpu_stall_shd_mem[gl_mem][bk_conf] = 0
gpgpu_stall_shd_mem[gl_mem][coal_stall] = 266415
gpgpu_stall_shd_mem[gl_mem][data_port_stall] = 0
gpgpu_stall_shd_mem[g_mem_ld][mshr_rc] = 0
gpgpu_stall_shd_mem[g_mem_ld][icnt_rc] = 10861
gpgpu_stall_shd_mem[g_mem_ld][wb_icnt_rc] = 0
gpgpu_stall_shd_mem[g_mem_ld][wb_rsrv_fail] = 0
gpgpu_stall_shd_mem[g_mem_st][mshr_rc] = 0
gpgpu_stall_shd_mem[g_mem_st][icnt_rc] = 0
gpgpu_stall_shd_mem[g_mem_st][wb_icnt_rc] = 0
gpgpu_stall_shd_mem[g_mem_st][wb_rsrv_fail] = 0
gpgpu_stall_shd_mem[l_mem_ld][mshr_rc] = 0
gpgpu_stall_shd_mem[l_mem_ld][icnt_rc] = 0
gpgpu_stall_shd_mem[l_mem_ld][wb_icnt_rc] = 0
gpgpu_stall_shd_mem[l_mem_ld][wb_rsrv_fail] = 0
gpgpu_stall_shd_mem[l_mem_st][mshr_rc] = 0
gpgpu_stall_shd_mem[l_mem_st][icnt_rc] = 0
gpgpu_stall_shd_mem[l_mem_ld][wb_icnt_rc] = 0
gpgpu_stall_shd_mem[l_mem_ld][wb_rsrv_fail] = 0
gpu_reg_bank_conflict_stalls = 0
Warp Occupancy Distribution:
Stall:360197	W0_Idle:10784732	W0_Scoreboard:59176392	W1:0	W2:1048448	W3:0	W4:0	W5:0	W6:0	W7:0	W8:0	W9:0	W10:0	W11:0	W12:0	W13:0	W14:0	W15:0	W16:1351515	W17:0	W18:0	W19:0	W20:0	W21:0	W22:0	W23:0	W24:0	W25:0	W26:0	W27:0	W28:0	W29:0	W30:0	W31:0	W32:6487272
traffic_breakdown_coretomem[CONST_ACC_R] = 224 {8:28,}
traffic_breakdown_coretomem[GLOBAL_ACC_R] = 1605432 {8:200679,}
traffic_breakdown_coretomem[GLOBAL_ACC_W] = 15202464 {40:98293,72:32763,136:65528,}
traffic_breakdown_coretomem[INST_ACC_R] = 1344 {8:168,}
traffic_breakdown_memtocore[CONST_ACC_R] = 2016 {72:28,}
traffic_breakdown_memtocore[GLOBAL_ACC_R] = 16021592 {40:90101,72:40954,136:69624,}
traffic_breakdown_memtocore[GLOBAL_ACC_W] = 1572672 {8:196584,}
traffic_breakdown_memtocore[INST_ACC_R] = 22848 {136:168,}
maxmrqlatency = 957 
maxdqlatency = 0 
maxmflatency = 126650 
averagemflatency = 3812 
max_icnt2mem_latency = 126392 
max_icnt2sh_latency = 1615288 
mrq_lat_table:51646 	4064 	7040 	19082 	33147 	20918 	15238 	13873 	14345 	1857 	0 	0 	0 	0 	0 	0 	0 	0 	0 	0 	0 	0 	0 	0 	0 	0 	0 	0 	0 	0 	0 	0 	
dq_lat_table:0 	0 	0 	0 	0 	0 	0 	0 	0 	0 	0 	0 	0 	0 	0 	0 	0 	0 	0 	0 	0 	0 	0 	0 	0 	0 	0 	0 	0 	0 	0 	0 	
mf_lat_table:0 	0 	0 	0 	0 	0 	0 	185190 	151208 	17918 	4387 	3029 	180 	6009 	10251 	16124 	2995 	0 	0 	0 	0 	0 	0 	0 	0 	0 	0 	0 	0 	0 	0 	0 	
icnt2mem_lat_table:0 	0 	72277 	120873 	8864 	226 	148798 	6904 	369 	113 	447 	3029 	180 	6121 	13018 	13245 	2995 	0 	0 	0 	0 	0 	0 	0 	
icnt2sh_lat_table:0 	0 	60236 	96785 	40711 	2926 	49 	0 	0 	0 	0 	0 	0 	0 	0 	0 	0 	2160 	22848 	79416 	92160 	0 	0 	0 	
mf_lat_pw_table:0 	0 	0 	0 	0 	0 	0 	264 	118 	18 	1 	20 	6 	15 	29 	20 	6 	0 	0 	0 	0 	0 	0 	0 	0 	0 	0 	0 	0 	0 	0 	0 	
maximum concurrent accesses to same row:
dram[0]:        79        69       111        95        26        33        43        51        51        52        48        43        85        85        60        77 
dram[1]:        77        86        86        87        27        32        25        26        55        52        33        74        85        85        69        65 
dram[2]:        85        80       104       103        35        51        34        43        68        60        69        35        85        85        69        69 
dram[3]:        76        74        82       103        35        51        26        33        68        60        48        43        85        85        77        69 
dram[4]:        77        68       100        78        34        43        26        42        59        68        45        43        85        85        66        60 
dram[5]:        61        70        90        94        26        41        28        34        60        60        51        33        85        85        69        69 
dram[6]:        69        56        84        86        27        26        33        34        68        50        51        51        85        85        68        77 
dram[7]:        68        61        78        78        27        26        34        41        60        68        41        43        85        85        74        61 
dram[8]:        69        77        94        86        35        27        41        42        60        60        37        40       102       102        79        94 
dram[9]:        69        65        81        78        42        35        34        43        51        43        54        41        85        85        86        69 
dram[10]:        77        69        70        86        42        31        36        51        52        43        51        38        85        85        69        85 
maximum service time to same row:
dram[0]:    134538    134539    131500    131501    131641    131587    150723    150719    150386    150386    149774    149767    149521    149524    145684    145616 
dram[1]:    134537    134537    131481    131460    131644    131582    150703    150703    150390    150396    149759    149758    149528    149523    145304    145609 
dram[2]:    134532    134531    131462    131465    131630    131565    150700    150717    150396    150392    149759    149759    149474    149468    145692    145682 
dram[3]:    134536    134562    131466    131458    131625    131562    150714    150700    150391    150393    149761    149761    149485    149498    145681    145605 
dram[4]:    134562    134537    131457    131456    131618    131560    150705    150688    150422    150404    149761    149650    149499    149478    128184    130630 
dram[5]:    134517    134539    131439    131454    131665    131612    150715    150717    150403    150405    149649    149669    149477    149491    130508    128237 
dram[6]:    134538    134561    131455    131483    131666    131604    150717    150710    150379    150378    149668    149638    149491    149532    130493    128246 
dram[7]:    146362    146212    131484    131494    131656    131592    150707    150706    150372    150372    149666    149665    149532    149460    128241    130573 
dram[8]:    146322    146125    131495    131491    131630    131565    150707    150708    150412    150410    149680    149679    149459    149458    128139    130515 
dram[9]:    146202    146335    131511    131503    131666    131608    150700    150695    150409    150413    149686    149697    149513    149536    128074    130747 
dram[10]:    146188    146116    131503    131503    131706    131649    150678    150672    150415    150415    149679    149764    149546    149539    127987    130677 
average row accesses per activate:
dram[0]:  5.066964  5.145454  5.725119  5.994949  3.987288  4.376147  4.319249  4.787879  4.539216  4.643216  3.868644  3.951754  6.279762  6.378882  5.453659  5.791045 
dram[1]:  5.085586  5.156250  5.691176  5.816832  4.204444  4.407407  4.286385  4.521951  4.512077  4.541872  3.781893  4.217778  6.017341  6.173653  6.005155  5.772021 
dram[2]:  5.151376  5.514286  5.897059  5.964646  4.295455  4.626794  4.319445  4.456731  4.752525  4.957219  4.077253  4.061674  6.208333  5.908046  5.811224  6.425415 
dram[3]:  4.863248  5.258065  6.087629  6.153846  4.287611  4.495327  4.355769  4.793815  5.052910  4.922680  4.057017  4.373272  6.093023  6.147929  5.949495  5.633663 
dram[4]:  5.186956  5.070796  5.970297  5.751220  4.162996  4.500000  4.751269  4.907692  4.806122  4.937500  4.008696  3.913793  5.886364  6.088235  5.611111  5.627451 
dram[5]:  4.723849  5.097345  5.709524  5.623188  4.248889  4.511737  4.316038  4.814433  4.279070  4.433333  4.004348  4.167421  5.867816  6.035503  5.502512  5.739796 
dram[6]:  4.707113  4.783898  5.634615  5.772727  3.948718  4.237443  4.509804  4.776650  4.364486  4.439613  4.043478  4.442857  5.874286  6.310976  5.641414  5.734375 
dram[7]:  4.909483  5.056277  5.569378  5.862245  4.254464  4.365297  4.383886  4.600985  4.456731  4.823232  4.202765  4.211982  5.858757  6.104651  5.702020  5.286408 
dram[8]:  4.855932  5.103139  5.609524  5.792079  4.444445  4.327189  4.593137  4.766840  4.735000  5.032085  4.126126  4.171946  6.063584  6.351191  5.608040  5.671717 
dram[9]:  5.224215  5.406542  5.780000  6.067358  4.363636  4.396313  4.533980  4.626263  4.763819  5.096774  4.080357  4.004386  6.343373  6.191861  5.517413  5.560976 
dram[10]:  5.509346  5.183036  5.693069  5.693780  4.252252  4.281106  4.563981  4.861538  5.106952  5.042328  3.939394  3.889831  6.341317  6.487500  5.295774  5.912820 
average row locality = 181210/36202 = 5.005525
number of total memory accesses made:
dram[0]:         0         0         0         0         0         0         0         0         0         0         0         0         0         0         0         0 
dram[1]:         0         0         0         0         0         0         0         0         0         0         0         0         0         0         0         0 
dram[2]:         0         0         0         0         0         0         0         0         0         0         0         0         0         0         0         0 
dram[3]:         0         0         0         0         0         0         0         0         0         0         0         0         0         0         0         0 
dram[4]:         0         0         0         0         0         0         0         0         0         0         0         0         0         0         0         0 
dram[5]:         0         0         0         0         0         0         0         0         0         0         0         0         0         0         0         0 
dram[6]:         0         0         0         0         0         0         0         0         0         0         0         0         0         0         0         0 
dram[7]:         0         0         0         0         0         0         0         0         0         0         0         0         0         0         0         0 
dram[8]:         0         0         0         0         0         0         0         0         0         0         0         0         0         0         0         0 
dram[9]:         0         0         0         0         0         0         0         0         0         0         0         0         0         0         0         0 
dram[10]:         0         0         0         0         0         0         0         0         0         0         0         0         0         0         0         0 
total accesses: 0
min_bank_accesses = 0!
min_chip_accesses = 0!
number of total read accesses:
dram[0]:       453       452       456       456       435       435       432       432       432       432       434       434       448       448       448       448 
dram[1]:       452       452       456       456       435       435       432       432       432       432       435       435       448       448       448       448 
dram[2]:       452       452       456       456       435       435       432       432       432       432       435       435       448       448       448       448 
dram[3]:       452       452       455       455       435       435       432       432       432       432       435       435       448       448       448       448 
dram[4]:       452       452       455       455       435       435       432       432       432       432       435       435       448       447       449       449 
dram[5]:       452       452       455       455       435       435       432       432       432       432       435       435       447       447       449       449 
dram[6]:       452       452       455       455       435       435       432       432       432       432       435       435       447       447       449       449 
dram[7]:       453       453       455       455       435       435       432       432       432       432       435       435       447       447       448       448 
dram[8]:       453       453       455       455       435       435       432       432       432       432       435       435       448       448       448       448 
dram[9]:       453       453       455       455       435       435       432       432       432       432       435       435       448       448       448       448 
dram[10]:       453       453       455       455       434       434       432       432       432       432       435       435       448       448       448       448 
total reads: 77824
bank skew: 456/432 = 1.06
chip skew: 7076/7074 = 1.00
number of total write accesses:
dram[0]:       682       680       752       731       506       519       488       516       494       492       479       467       607       579       670       716 
dram[1]:       677       703       705       719       511       517       481       495       502       490       484       514       593       583       717       666 
dram[2]:       671       706       747       725       510       532       501       495       509       495       515       487       595       580       691       715 
dram[3]:       686       689       726       745       534       527       474       498       523       523       490       514       600       591       730       690 
dram[4]:       741       694       751       724       510       519       504       525       510       516       487       473       588       588       662       699 
dram[5]:       677       700       744       709       521       526       483       502       488       499       486       486       574       573       646       676 
dram[6]:       673       677       717       688       489       493       488       509       502       487       495       498       581       588       668       652 
dram[7]:       686       715       709       694       518       521       493       502       495       523       477       479       590       603       681       641 
dram[8]:       693       685       723       715       525       504       505       488       515       509       481       487       601       619       668       675 
dram[9]:       712       704       701       716       525       519       502       484       516       516       479       478       605       617       661       692 
dram[10]:       726       708       695       735       510       495       531       516       523       521       475       483       611       590       680       705 
total reads: 103386
bank skew: 752/467 = 1.61
chip skew: 9540/9205 = 1.04
average mf latency per bank:
dram[0]:       8661      8545      7845      8051      7423      7241      8995      8784     11360     11428      9135      9319      7521      7892      5625      5212
dram[1]:       8694      8551      8354      8385      7367      7261      9165      8941     11111     11318      8980      8618      7728      7661      5298      5571
dram[2]:       8898      8599      8023      8191      7215      7118      8942      8873     11088     11260      8655      9061      7259      7336      5477      5267
dram[3]:       8527      8492      8446      8311      7114      7202      9073      8879     11169     10980      9123      8704      7323      7416      4961      5251
dram[4]:       8154      8591      8372      8444      7372      7290      8822      8701     11106     10525      8950      9045      7429      7333      7304      7099
dram[5]:       8963      8693      8299      8559      7348      7274      8939      8774     10851     10718      9019      9148      7362      7439      7420      7208
dram[6]:       8904      8871      8477      8790      7610      7542      8938      8811     10569     10849      9011      8951      7427      7467      7356      7359
dram[7]:       8981      8716      8558      8536      7272      7274      9205      8983     10761     10493      8999      9029      7515      7506      7213      7495
dram[8]:       8756      8852      8350      8368      7186      7420      8992      9074     10581     10698      9119      8927      8037      7745      7309      7251
dram[9]:       8633      8745      8453      8214      7149      7184      8954      9242     11263     11106      9028      8988      7734      7626      7202      7127
dram[10]:       8613      8744      8426      7889      7301      7377      8651      8786     11057     11020      9284      9246      7670      7703      7197      6175
maximum mf latency per bank:
dram[0]:     123947    123985    123866    123834     63171     63198    123810    123818    123498    123530    123739    123794    123475    123492    123269    123264
dram[1]:     123933    124000    123863    123837     63186     63199    123814    123825    123504    123535    123747    123668    123491    123487    123231    123258
dram[2]:     123931    124029    123848    123882     63179     63198    123826    123828    123510    123545    123640    123674    123499    123504    123173    123219
dram[3]:     123958    124009    123838    123869     63172     63191    123829    123822    123515    123532    123657    123658    123500    123507    123143    123186
dram[4]:     123940    124022    123806    123844     63184     63205    123785    123721    123516    123546    123628    123655    123489    123494    126650    126565
dram[5]:     123990    124074    123777    123896     63179     63192    123713    123713    123374    123420    123602    123617    123500    123455    126604    126584
dram[6]:     123996    124081    123858    123898     63171     63197    123811    123823    123462    123499    123589    123590    123315    123323    126595    126565
dram[7]:     123993    124064    123866    123898     63173     63187    123739    123749    123493    123506    123574    123607    123341    123388    126481    126471
dram[8]:     123988    124064    123839    123890     63178     63189    123828    123848    123604    123635    123586    123602    123379    123359    126471    126414
dram[9]:     123961    124040    123879    123893     63188     63207    123724    123747    123496    123533    123564    123571    123368    123410    126374    126381
dram[10]:     123968    124021    123879    123887     63200     63217    123823    123785    123593    123627    123752    123792    123409    123446    126308    126236
Memory Partition 0: 
Cache L2_bank_000:
MSHR contents

Cache L2_bank_001:
MSHR contents

In Dram Latency Queue (total = 0): 
DRAM[0]: 16 bks, busW=4 BL=8 CL=12, tRRD=2 tCCD=6, tRCD=12 tRAS=28 tRP=12 tRC=40
n_cmd=2586854 n_nop=2528720 n_act=3321 n_pre=3305 n_req=16453 n_rd=28300 n_write=23208 bw_util=0.03982
n_activity=158848 dram_eff=0.6485
bk0: 1812a 2561524i bk1: 1808a 2559041i bk2: 1824a 2557774i bk3: 1824a 2556616i bk4: 1740a 2560144i bk5: 1740a 2558789i bk6: 1728a 2562205i bk7: 1728a 2561131i bk8: 1728a 2562604i bk9: 1728a 2560637i bk10: 1736a 2559817i bk11: 1736a 2559167i bk12: 1792a 2560447i bk13: 1792a 2559558i bk14: 1792a 2559527i bk15: 1792a 2558153i 
dram_util_bins: 0 0 0 0 0 0 0 0 0 0
dram_eff_bins: 0 0 0 0 0 0 0 0 0 0
mrqq: max=64 avg=0.76861
Memory Partition 1: 
Cache L2_bank_002:
MSHR contents

Cache L2_bank_003:
MSHR contents

In Dram Latency Queue (total = 0): 
DRAM[1]: 16 bks, busW=4 BL=8 CL=12, tRRD=2 tCCD=6, tRCD=12 tRAS=28 tRP=12 tRC=40
n_cmd=2586854 n_nop=2528753 n_act=3316 n_pre=3300 n_req=16433 n_rd=28304 n_write=23181 bw_util=0.03981
n_activity=158029 dram_eff=0.6516
bk0: 1808a 2561514i bk1: 1808a 2559646i bk2: 1824a 2557854i bk3: 1824a 2556380i bk4: 1740a 2560190i bk5: 1740a 2558030i bk6: 1728a 2561212i bk7: 1728a 2561241i bk8: 1728a 2562341i bk9: 1728a 2560334i bk10: 1740a 2559948i bk11: 1740a 2559371i bk12: 1792a 2559658i bk13: 1792a 2559721i bk14: 1792a 2558916i bk15: 1792a 2557996i 
dram_util_bins: 0 0 0 0 0 0 0 0 0 0
dram_eff_bins: 0 0 0 0 0 0 0 0 0 0
mrqq: max=64 avg=0.778015
Memory Partition 2: 
Cache L2_bank_004:
MSHR contents

Cache L2_bank_005:
MSHR contents

In Dram Latency Queue (total = 0): 
DRAM[2]: 16 bks, busW=4 BL=8 CL=12, tRRD=2 tCCD=6, tRCD=12 tRAS=28 tRP=12 tRC=40
n_cmd=2586854 n_nop=2528828 n_act=3247 n_pre=3231 n_req=16550 n_rd=28304 n_write=23244 bw_util=0.03985
n_activity=157952 dram_eff=0.6527
bk0: 1808a 2559836i bk1: 1808a 2558634i bk2: 1824a 2557363i bk3: 1824a 2556325i bk4: 1740a 2559683i bk5: 1740a 2558181i bk6: 1728a 2562773i bk7: 1728a 2560988i bk8: 1728a 2562672i bk9: 1728a 2562089i bk10: 1740a 2560067i bk11: 1740a 2558810i bk12: 1792a 2560784i bk13: 1792a 2560706i bk14: 1792a 2559867i bk15: 1792a 2557368i 
dram_util_bins: 0 0 0 0 0 0 0 0 0 0
dram_eff_bins: 0 0 0 0 0 0 0 0 0 0
mrqq: max=64 avg=0.776621
Memory Partition 3: 
Cache L2_bank_006:
MSHR contents

Cache L2_bank_007:
MSHR contents

In Dram Latency Queue (total = 0): 
DRAM[3]: 16 bks, busW=4 BL=8 CL=12, tRRD=2 tCCD=6, tRCD=12 tRAS=28 tRP=12 tRC=40
n_cmd=2586854 n_nop=2528762 n_act=3251 n_pre=3235 n_req=16614 n_rd=28296 n_write=23310 bw_util=0.0399
n_activity=157565 dram_eff=0.655
bk0: 1808a 2560105i bk1: 1808a 2559415i bk2: 1820a 2558239i bk3: 1820a 2557352i bk4: 1740a 2559567i bk5: 1740a 2558617i bk6: 1728a 2563170i bk7: 1728a 2561109i bk8: 1728a 2564148i bk9: 1728a 2561925i bk10: 1740a 2561381i bk11: 1740a 2560885i bk12: 1792a 2561040i bk13: 1792a 2559266i bk14: 1792a 2558901i bk15: 1792a 2557619i 
dram_util_bins: 0 0 0 0 0 0 0 0 0 0
dram_eff_bins: 0 0 0 0 0 0 0 0 0 0
mrqq: max=64 avg=0.791844
Memory Partition 4: 
Cache L2_bank_008:
MSHR contents

Cache L2_bank_009:
MSHR contents

In Dram Latency Queue (total = 0): 
DRAM[4]: 16 bks, busW=4 BL=8 CL=12, tRRD=2 tCCD=6, tRCD=12 tRAS=28 tRP=12 tRC=40
n_cmd=2586854 n_nop=2528704 n_act=3292 n_pre=3276 n_req=16566 n_rd=28300 n_write=23282 bw_util=0.03988
n_activity=156481 dram_eff=0.6593
bk0: 1808a 2560578i bk1: 1808a 2559676i bk2: 1820a 2558391i bk3: 1820a 2556843i bk4: 1740a 2559928i bk5: 1740a 2559603i bk6: 1728a 2561714i bk7: 1728a 2560547i bk8: 1728a 2561967i bk9: 1728a 2561741i bk10: 1740a 2562139i bk11: 1740a 2559159i bk12: 1792a 2561732i bk13: 1788a 2560344i bk14: 1796a 2558525i bk15: 1796a 2556412i 
dram_util_bins: 0 0 0 0 0 0 0 0 0 0
dram_eff_bins: 0 0 0 0 0 0 0 0 0 0
mrqq: max=64 avg=0.789815
Memory Partition 5: 
Cache L2_bank_010:
MSHR contents

Cache L2_bank_011:
MSHR contents

In Dram Latency Queue (total = 0): 
DRAM[5]: 16 bks, busW=4 BL=8 CL=12, tRRD=2 tCCD=6, tRCD=12 tRAS=28 tRP=12 tRC=40
n_cmd=2586854 n_nop=2528771 n_act=3340 n_pre=3324 n_req=16364 n_rd=28296 n_write=23123 bw_util=0.03975
n_activity=157514 dram_eff=0.6529
bk0: 1808a 2559414i bk1: 1808a 2559135i bk2: 1820a 2558164i bk3: 1820a 2556277i bk4: 1740a 2559771i bk5: 1740a 2559999i bk6: 1728a 2560696i bk7: 1728a 2560770i bk8: 1728a 2561619i bk9: 1728a 2559814i bk10: 1740a 2560491i bk11: 1740a 2558997i bk12: 1788a 2562625i bk13: 1788a 2560752i bk14: 1796a 2559053i bk15: 1796a 2556644i 
dram_util_bins: 0 0 0 0 0 0 0 0 0 0
dram_eff_bins: 0 0 0 0 0 0 0 0 0 0
mrqq: max=64 avg=0.792885
Memory Partition 6: 
Cache L2_bank_012:
MSHR contents

Cache L2_bank_013:
MSHR contents

In Dram Latency Queue (total = 0): 
DRAM[6]: 16 bks, busW=4 BL=8 CL=12, tRRD=2 tCCD=6, tRCD=12 tRAS=28 tRP=12 tRC=40
n_cmd=2586854 n_nop=2528850 n_act=3325 n_pre=3309 n_req=16279 n_rd=28296 n_write=23074 bw_util=0.03972
n_activity=157729 dram_eff=0.6514
bk0: 1808a 2560146i bk1: 1808a 2559124i bk2: 1820a 2558918i bk3: 1820a 2558488i bk4: 1740a 2560241i bk5: 1740a 2558128i bk6: 1728a 2561483i bk7: 1728a 2560667i bk8: 1728a 2560914i bk9: 1728a 2559633i bk10: 1740a 2559795i bk11: 1740a 2560041i bk12: 1788a 2561553i bk13: 1788a 2561355i bk14: 1796a 2558973i bk15: 1796a 2557220i 
dram_util_bins: 0 0 0 0 0 0 0 0 0 0
dram_eff_bins: 0 0 0 0 0 0 0 0 0 0
mrqq: max=64 avg=0.780965
Memory Partition 7: 
Cache L2_bank_014:
MSHR contents

Cache L2_bank_015:
MSHR contents

In Dram Latency Queue (total = 0): 
DRAM[7]: 16 bks, busW=4 BL=8 CL=12, tRRD=2 tCCD=6, tRCD=12 tRAS=28 tRP=12 tRC=40
n_cmd=2586854 n_nop=2528781 n_act=3318 n_pre=3302 n_req=16401 n_rd=28296 n_write=23157 bw_util=0.03978
n_activity=156867 dram_eff=0.656
bk0: 1812a 2559791i bk1: 1812a 2557729i bk2: 1820a 2557946i bk3: 1820a 2556489i bk4: 1740a 2560336i bk5: 1740a 2559124i bk6: 1728a 2561725i bk7: 1728a 2561282i bk8: 1728a 2560861i bk9: 1728a 2559457i bk10: 1740a 2559799i bk11: 1740a 2557968i bk12: 1788a 2561758i bk13: 1788a 2560690i bk14: 1792a 2558749i bk15: 1792a 2557857i 
dram_util_bins: 0 0 0 0 0 0 0 0 0 0
dram_eff_bins: 0 0 0 0 0 0 0 0 0 0
mrqq: max=64 avg=0.77637
Memory Partition 8: 
Cache L2_bank_016:
MSHR contents

Cache L2_bank_017:
MSHR contents

In Dram Latency Queue (total = 0): 
DRAM[8]: 16 bks, busW=4 BL=8 CL=12, tRRD=2 tCCD=6, tRCD=12 tRAS=28 tRP=12 tRC=40
n_cmd=2586854 n_nop=2528808 n_act=3269 n_pre=3253 n_req=16469 n_rd=28304 n_write=23220 bw_util=0.03984
n_activity=157494 dram_eff=0.6543
bk0: 1812a 2560786i bk1: 1812a 2559345i bk2: 1820a 2558920i bk3: 1820a 2557043i bk4: 1740a 2561987i bk5: 1740a 2559394i bk6: 1728a 2561258i bk7: 1728a 2561223i bk8: 1728a 2562277i bk9: 1728a 2560296i bk10: 1740a 2559319i bk11: 1740a 2557942i bk12: 1792a 2562073i bk13: 1792a 2559055i bk14: 1792a 2559101i bk15: 1792a 2557601i 
dram_util_bins: 0 0 0 0 0 0 0 0 0 0
dram_eff_bins: 0 0 0 0 0 0 0 0 0 0
mrqq: max=64 avg=0.774231
Memory Partition 9: 
Cache L2_bank_018:
MSHR contents

Cache L2_bank_019:
MSHR contents

In Dram Latency Queue (total = 0): 
DRAM[9]: 16 bks, busW=4 BL=8 CL=12, tRRD=2 tCCD=6, tRCD=12 tRAS=28 tRP=12 tRC=40
n_cmd=2586854 n_nop=2528847 n_act=3252 n_pre=3236 n_req=16503 n_rd=28304 n_write=23215 bw_util=0.03983
n_activity=158112 dram_eff=0.6517
bk0: 1812a 2559532i bk1: 1812a 2559325i bk2: 1820a 2557893i bk3: 1820a 2556285i bk4: 1740a 2558815i bk5: 1740a 2559170i bk6: 1728a 2564131i bk7: 1728a 2561075i bk8: 1728a 2561887i bk9: 1728a 2560135i bk10: 1740a 2558955i bk11: 1740a 2557606i bk12: 1792a 2561080i bk13: 1792a 2558588i bk14: 1792a 2559898i bk15: 1792a 2557691i 
dram_util_bins: 0 0 0 0 0 0 0 0 0 0
dram_eff_bins: 0 0 0 0 0 0 0 0 0 0
mrqq: max=64 avg=0.777229
Memory Partition 10: 
Cache L2_bank_020:
MSHR contents

Cache L2_bank_021:
MSHR contents

In Dram Latency Queue (total = 0): 
DRAM[10]: 16 bks, busW=4 BL=8 CL=12, tRRD=2 tCCD=6, tRCD=12 tRAS=28 tRP=12 tRC=40
n_cmd=2586854 n_nop=2528747 n_act=3272 n_pre=3256 n_req=16578 n_rd=28296 n_write=23283 bw_util=0.03988
n_activity=158310 dram_eff=0.6516
bk0: 1812a 2561329i bk1: 1812a 2558603i bk2: 1820a 2558398i bk3: 1820a 2556608i bk4: 1736a 2560114i bk5: 1736a 2558818i bk6: 1728a 2560502i bk7: 1728a 2561927i bk8: 1728a 2563577i bk9: 1728a 2561291i bk10: 1740a 2558749i bk11: 1740a 2558042i bk12: 1792a 2559589i bk13: 1792a 2558169i bk14: 1792a 2558518i bk15: 1792a 2557231i 
dram_util_bins: 0 0 0 0 0 0 0 0 0 0
dram_eff_bins: 0 0 0 0 0 0 0 0 0 0
mrqq: max=64 avg=0.777153

========= L2 cache stats =========
L2_cache_bank[0]: Access = 18080, Miss = 3538, Miss_rate = 0.196, Pending_hits = 7514, Reservation_fails = 17
L2_cache_bank[1]: Access = 18054, Miss = 3537, Miss_rate = 0.196, Pending_hits = 7508, Reservation_fails = 9
L2_cache_bank[2]: Access = 18070, Miss = 3538, Miss_rate = 0.196, Pending_hits = 7561, Reservation_fails = 18
L2_cache_bank[3]: Access = 18071, Miss = 3538, Miss_rate = 0.196, Pending_hits = 7467, Reservation_fails = 12
L2_cache_bank[4]: Access = 18071, Miss = 3538, Miss_rate = 0.196, Pending_hits = 7590, Reservation_fails = 9
L2_cache_bank[5]: Access = 18063, Miss = 3538, Miss_rate = 0.196, Pending_hits = 7597, Reservation_fails = 18
L2_cache_bank[6]: Access = 18052, Miss = 3537, Miss_rate = 0.196, Pending_hits = 7588, Reservation_fails = 15
L2_cache_bank[7]: Access = 18052, Miss = 3537, Miss_rate = 0.196, Pending_hits = 7602, Reservation_fails = 12
L2_cache_bank[8]: Access = 18080, Miss = 3538, Miss_rate = 0.196, Pending_hits = 7628, Reservation_fails = 9
L2_cache_bank[9]: Access = 18078, Miss = 3537, Miss_rate = 0.196, Pending_hits = 7605, Reservation_fails = 9
L2_cache_bank[10]: Access = 18078, Miss = 3537, Miss_rate = 0.196, Pending_hits = 7433, Reservation_fails = 12
L2_cache_bank[11]: Access = 18076, Miss = 3537, Miss_rate = 0.196, Pending_hits = 7546, Reservation_fails = 14
L2_cache_bank[12]: Access = 18076, Miss = 3537, Miss_rate = 0.196, Pending_hits = 7478, Reservation_fails = 12
L2_cache_bank[13]: Access = 18078, Miss = 3537, Miss_rate = 0.196, Pending_hits = 7381, Reservation_fails = 12
L2_cache_bank[14]: Access = 18052, Miss = 3537, Miss_rate = 0.196, Pending_hits = 7530, Reservation_fails = 7
L2_cache_bank[15]: Access = 18054, Miss = 3537, Miss_rate = 0.196, Pending_hits = 7548, Reservation_fails = 12
L2_cache_bank[16]: Access = 18068, Miss = 3538, Miss_rate = 0.196, Pending_hits = 7596, Reservation_fails = 14
L2_cache_bank[17]: Access = 18068, Miss = 3538, Miss_rate = 0.196, Pending_hits = 7447, Reservation_fails = 14
L2_cache_bank[18]: Access = 18070, Miss = 3538, Miss_rate = 0.196, Pending_hits = 7514, Reservation_fails = 14
L2_cache_bank[19]: Access = 18062, Miss = 3538, Miss_rate = 0.196, Pending_hits = 7562, Reservation_fails = 16
L2_cache_bank[20]: Access = 18054, Miss = 3537, Miss_rate = 0.196, Pending_hits = 7611, Reservation_fails = 10
L2_cache_bank[21]: Access = 18052, Miss = 3537, Miss_rate = 0.196, Pending_hits = 7590, Reservation_fails = 14
L2_total_cache_accesses = 397459
L2_total_cache_misses = 77824
L2_total_cache_miss_rate = 0.1958
L2_total_cache_pending_hits = 165896
L2_total_cache_reservation_fails = 279
L2_total_cache_breakdown:
	L2_cache_stats_breakdown[GLOBAL_ACC_R][HIT] = 9874
	L2_cache_stats_breakdown[GLOBAL_ACC_R][HIT_RESERVED] = 117084
	L2_cache_stats_breakdown[GLOBAL_ACC_R][MISS] = 73721
	L2_cache_stats_breakdown[GLOBAL_ACC_R][RESERVATION_FAIL] = 0
	L2_cache_stats_breakdown[LOCAL_ACC_R][HIT] = 0
	L2_cache_stats_breakdown[LOCAL_ACC_R][HIT_RESERVED] = 0
	L2_cache_stats_breakdown[LOCAL_ACC_R][MISS] = 0
	L2_cache_stats_breakdown[LOCAL_ACC_R][RESERVATION_FAIL] = 0
	L2_cache_stats_breakdown[CONST_ACC_R][HIT] = 0
	L2_cache_stats_breakdown[CONST_ACC_R][HIT_RESERVED] = 27
	L2_cache_stats_breakdown[CONST_ACC_R][MISS] = 1
	L2_cache_stats_breakdown[CONST_ACC_R][RESERVATION_FAIL] = 0
	L2_cache_stats_breakdown[TEXTURE_ACC_R][HIT] = 0
	L2_cache_stats_breakdown[TEXTURE_ACC_R][HIT_RESERVED] = 0
	L2_cache_stats_breakdown[TEXTURE_ACC_R][MISS] = 0
	L2_cache_stats_breakdown[TEXTURE_ACC_R][RESERVATION_FAIL] = 0
	L2_cache_stats_breakdown[GLOBAL_ACC_W][HIT] = 143835
[...]
F:  5959200----T:  5961805 	 St: c118e000 Sz: 4096 	 Sm: 0 	 T: memcpy_h2d(1.758947)
F:  5961805----T:  5964410 	 St: c1187000 Sz: 4096 	 Sm: 0 	 T: memcpy_h2d(1.758947)
F:  5964410----T:  5967015 	 St: c118f000 Sz: 4096 	 Sm: 0 	 T: memcpy_h2d(1.758947)
F:  5967015----T:  5969620 	 St: c1188000 Sz: 4096 	 Sm: 0 	 T: memcpy_h2d(1.758947)
F:  5969620----T:  5972225 	 St: c1192000 Sz: 4096 	 Sm: 0 	 T: memcpy_h2d(1.758947)
F:  5972225----T:  5974830 	 St: c118c000 Sz: 4096 	 Sm: 0 	 T: memcpy_h2d(1.758947)
F:  5974830----T:  5977435 	 St: c1191000 Sz: 4096 	 Sm: 0 	 T: memcpy_h2d(1.758947)
F:  5977435----T:  5980040 	 St: c1190000 Sz: 4096 	 Sm: 0 	 T: memcpy_h2d(1.758947)
F:  5981683----T:  5984288 	 St: c1a36000 Sz: 4096 	 Sm: 0 	 T: memcpy_h2d(1.758947)
F:  5984062----T:  5992764 	 St: c09f0000 Sz: 65536 	 Sm: 0 	 T: write_back(5.875760)
F:  5984288----T:  5986893 	 St: c1a35000 Sz: 4096 	 Sm: 0 	 T: memcpy_h2d(1.758947)
F:  5986893----T:  5989498 	 St: c1a27000 Sz: 4096 	 Sm: 0 	 T: memcpy_h2d(1.758947)
F:  5989498----T:  5992103 	 St: c1a26000 Sz: 4096 	 Sm: 0 	 T: memcpy_h2d(1.758947)
F:  5992103----T:  5994708 	 St: c1a2e000 Sz: 4096 	 Sm: 0 	 T: memcpy_h2d(1.758947)
F:  5992764----T:  6001466 	 St: c0a00000 Sz: 65536 	 Sm: 0 	 T: write_back(5.875760)
F:  5994708----T:  5997313 	 St: c1a2f000 Sz: 4096 	 Sm: 0 	 T: memcpy_h2d(1.758947)
F:  5997313----T:  5999918 	 St: c1a3d000 Sz: 4096 	 Sm: 0 	 T: memcpy_h2d(1.758947)
F:  5999918----T:  6002523 	 St: c1a29000 Sz: 4096 	 Sm: 0 	 T: memcpy_h2d(1.758947)
F:  6001466----T:  6010168 	 St: c0a10000 Sz: 65536 	 Sm: 0 	 T: write_back(5.875760)
F:  6002523----T:  6005128 	 St: c1a28000 Sz: 4096 	 Sm: 0 	 T: memcpy_h2d(1.758947)
F:  6005128----T:  6007733 	 St: c1a23000 Sz: 4096 	 Sm: 0 	 T: memcpy_h2d(1.758947)
F:  6007733----T:  6010338 	 St: c1a24000 Sz: 4096 	 Sm: 0 	 T: memcpy_h2d(1.758947)
F:  6010168----T:  6018870 	 St: c0a20000 Sz: 65536 	 Sm: 0 	 T: write_back(5.875760)
F:  6010338----T:  6012943 	 St: c1a25000 Sz: 4096 	 Sm: 0 	 T: memcpy_h2d(1.758947)
F:  6012943----T:  6015548 	 St: c1a2a000 Sz: 4096 	 Sm: 0 	 T: memcpy_h2d(1.758947)
F:  6015548----T:  6018153 	 St: c1a2b000 Sz: 4096 	 Sm: 0 	 T: memcpy_h2d(1.758947)
F:  6018153----T:  6020758 	 St: c1a30000 Sz: 4096 	 Sm: 0 	 T: memcpy_h2d(1.758947)
F:  6018871----T:  6027573 	 St: c0a30000 Sz: 65536 	 Sm: 0 	 T: write_back(5.875760)
F:  6020758----T:  6023363 	 St: c1a3e000 Sz: 4096 	 Sm: 0 	 T: memcpy_h2d(1.758947)
F:  6023363----T:  6025968 	 St: c1a3c000 Sz: 4096 	 Sm: 0 	 T: memcpy_h2d(1.758947)
F:  6025968----T:  6028573 	 St: c1a2c000 Sz: 4096 	 Sm: 0 	 T: memcpy_h2d(1.758947)
F:  6028573----T:  6031178 	 St: c1a44000 Sz: 4096 	 Sm: 0 	 T: memcpy_h2d(1.758947)
F:  6031178----T:  6033783 	 St: c1a31000 Sz: 4096 	 Sm: 0 	 T: memcpy_h2d(1.758947)
F:  6033783----T:  6036388 	 St: c1a38000 Sz: 4096 	 Sm: 0 	 T: memcpy_h2d(1.758947)
F:  6036388----T:  6038993 	 St: c1a32000 Sz: 4096 	 Sm: 0 	 T: memcpy_h2d(1.758947)
F:  6038993----T:  6041598 	 St: c1a37000 Sz: 4096 	 Sm: 0 	 T: memcpy_h2d(1.758947)
F:  6041598----T:  6044203 	 St: c1a3f000 Sz: 4096 	 Sm: 0 	 T: memcpy_h2d(1.758947)
F:  6044203----T:  6046808 	 St: c1a39000 Sz: 4096 	 Sm: 0 	 T: memcpy_h2d(1.758947)
F:  6046808----T:  6049413 	 St: c1a2d000 Sz: 4096 	 Sm: 0 	 T: memcpy_h2d(1.758947)
F:  6047208----T:  6055910 	 St: c0a40000 Sz: 65536 	 Sm: 0 	 T: write_back(5.875760)
F:  6049413----T:  6052018 	 St: c1a33000 Sz: 4096 	 Sm: 0 	 T: memcpy_h2d(1.758947)
F:  6052018----T:  6054623 	 St: c1a34000 Sz: 4096 	 Sm: 0 	 T: memcpy_h2d(1.758947)
F:  6054623----T:  6057228 	 St: c1a3b000 Sz: 4096 	 Sm: 0 	 T: memcpy_h2d(1.758947)
F:  6057228----T:  6059833 	 St: c1a3a000 Sz: 4096 	 Sm: 0 	 T: memcpy_h2d(1.758947)
F:  6059833----T:  6062438 	 St: c1a4b000 Sz: 4096 	 Sm: 0 	 T: memcpy_h2d(1.758947)
F:  6062438----T:  6065043 	 St: c1a54000 Sz: 4096 	 Sm: 0 	 T: memcpy_h2d(1.758947)
F:  6065043----T:  6067648 	 St: c1a45000 Sz: 4096 	 Sm: 0 	 T: memcpy_h2d(1.758947)
F:  6067648----T:  6070253 	 St: c1a4c000 Sz: 4096 	 Sm: 0 	 T: memcpy_h2d(1.758947)
F:  6070253----T:  6072858 	 St: c1a4d000 Sz: 4096 	 Sm: 0 	 T: memcpy_h2d(1.758947)
F:  6072858----T:  6075463 	 St: c1a40000 Sz: 4096 	 Sm: 0 	 T: memcpy_h2d(1.758947)
F:  6075463----T:  6078068 	 St: c1a47000 Sz: 4096 	 Sm: 0 	 T: memcpy_h2d(1.758947)
F:  6078068----T:  6080673 	 St: c1a41000 Sz: 4096 	 Sm: 0 	 T: memcpy_h2d(1.758947)
F:  6080673----T:  6083278 	 St: c1a48000 Sz: 4096 	 Sm: 0 	 T: memcpy_h2d(1.758947)
F:  6083278----T:  6085883 	 St: c1a46000 Sz: 4096 	 Sm: 0 	 T: memcpy_h2d(1.758947)
F:  6085883----T:  6088488 	 St: c1a53000 Sz: 4096 	 Sm: 0 	 T: memcpy_h2d(1.758947)
F:  6088488----T:  6091093 	 St: c1a42000 Sz: 4096 	 Sm: 0 	 T: memcpy_h2d(1.758947)
F:  6088893----T:  6097595 	 St: c0a50000 Sz: 65536 	 Sm: 0 	 T: write_back(5.875760)
F:  6091093----T:  6093698 	 St: c1a49000 Sz: 4096 	 Sm: 0 	 T: memcpy_h2d(1.758947)
F:  6093698----T:  6096303 	 St: c1a43000 Sz: 4096 	 Sm: 0 	 T: memcpy_h2d(1.758947)
F:  6096303----T:  6098908 	 St: c1a4a000 Sz: 4096 	 Sm: 0 	 T: memcpy_h2d(1.758947)
F:  6098908----T:  6101513 	 St: c1a55000 Sz: 4096 	 Sm: 0 	 T: memcpy_h2d(1.758947)
F:  6101513----T:  6104118 	 St: c11a6000 Sz: 4096 	 Sm: 0 	 T: memcpy_h2d(1.758947)
F:  6104118----T:  6106723 	 St: c1a57000 Sz: 4096 	 Sm: 0 	 T: memcpy_h2d(1.758947)
F:  6106723----T:  6109328 	 St: c1a4f000 Sz: 4096 	 Sm: 0 	 T: memcpy_h2d(1.758947)
F:  6109328----T:  6111933 	 St: c1a56000 Sz: 4096 	 Sm: 0 	 T: memcpy_h2d(1.758947)
F:  6111933----T:  6114538 	 St: c1a5c000 Sz: 4096 	 Sm: 0 	 T: memcpy_h2d(1.758947)
F:  6114538----T:  6117143 	 St: c1a4e000 Sz: 4096 	 Sm: 0 	 T: memcpy_h2d(1.758947)
F:  6117143----T:  6119748 	 St: c1a50000 Sz: 4096 	 Sm: 0 	 T: memcpy_h2d(1.758947)
F:  6119748----T:  6122353 	 St: c1a51000 Sz: 4096 	 Sm: 0 	 T: memcpy_h2d(1.758947)
F:  6122353----T:  6124958 	 St: c1a5b000 Sz: 4096 	 Sm: 0 	 T: memcpy_h2d(1.758947)
F:  6124958----T:  6127563 	 St: c1a52000 Sz: 4096 	 Sm: 0 	 T: memcpy_h2d(1.758947)
F:  6127563----T:  6130168 	 St: c1a58000 Sz: 4096 	 Sm: 0 	 T: memcpy_h2d(1.758947)
F:  6130168----T:  6132773 	 St: c1a5a000 Sz: 4096 	 Sm: 0 	 T: memcpy_h2d(1.758947)
F:  6132773----T:  6135378 	 St: c11a5000 Sz: 4096 	 Sm: 0 	 T: memcpy_h2d(1.758947)
F:  6133161----T:  6141863 	 St: c0a70000 Sz: 65536 	 Sm: 0 	 T: write_back(5.875760)
F:  6135378----T:  6137983 	 St: c1a59000 Sz: 4096 	 Sm: 0 	 T: memcpy_h2d(1.758947)
F:  6137983----T:  6140588 	 St: c1197000 Sz: 4096 	 Sm: 0 	 T: memcpy_h2d(1.758947)
F:  6140588----T:  6143193 	 St: c1196000 Sz: 4096 	 Sm: 0 	 T: memcpy_h2d(1.758947)
F:  6143193----T:  6145798 	 St: c119e000 Sz: 4096 	 Sm: 0 	 T: memcpy_h2d(1.758947)
F:  6145798----T:  6148403 	 St: c119f000 Sz: 4096 	 Sm: 0 	 T: memcpy_h2d(1.758947)
F:  6148403----T:  6151008 	 St: c11ad000 Sz: 4096 	 Sm: 0 	 T: memcpy_h2d(1.758947)
F:  6151008----T:  6153613 	 St: c1199000 Sz: 4096 	 Sm: 0 	 T: memcpy_h2d(1.758947)
F:  6153613----T:  6156218 	 St: c1198000 Sz: 4096 	 Sm: 0 	 T: memcpy_h2d(1.758947)
F:  6156218----T:  6158823 	 St: c1193000 Sz: 4096 	 Sm: 0 	 T: memcpy_h2d(1.758947)
F:  6158823----T:  6161428 	 St: c1194000 Sz: 4096 	 Sm: 0 	 T: memcpy_h2d(1.758947)
F:  6161428----T:  6164033 	 St: c1195000 Sz: 4096 	 Sm: 0 	 T: memcpy_h2d(1.758947)
F:  6164033----T:  6166638 	 St: c119a000 Sz: 4096 	 Sm: 0 	 T: memcpy_h2d(1.758947)
F:  6166638----T:  6169243 	 St: c119b000 Sz: 4096 	 Sm: 0 	 T: memcpy_h2d(1.758947)
F:  6169243----T:  6171848 	 St: c11a0000 Sz: 4096 	 Sm: 0 	 T: memcpy_h2d(1.758947)
F:  6171848----T:  6174453 	 St: c11ae000 Sz: 4096 	 Sm: 0 	 T: memcpy_h2d(1.758947)
F:  6174453----T:  6177058 	 St: c11ac000 Sz: 4096 	 Sm: 0 	 T: memcpy_h2d(1.758947)
F:  6177058----T:  6179663 	 St: c119c000 Sz: 4096 	 Sm: 0 	 T: memcpy_h2d(1.758947)
F:  6179663----T:  6182268 	 St: c11b4000 Sz: 4096 	 Sm: 0 	 T: memcpy_h2d(1.758947)
F:  6182268----T:  6184873 	 St: c11a1000 Sz: 4096 	 Sm: 0 	 T: memcpy_h2d(1.758947)
F:  6184873----T:  6187478 	 St: c11a8000 Sz: 4096 	 Sm: 0 	 T: memcpy_h2d(1.758947)
F:  6187478----T:  6190083 	 St: c11a2000 Sz: 4096 	 Sm: 0 	 T: memcpy_h2d(1.758947)
F:  6190083----T:  6192688 	 St: c11a7000 Sz: 4096 	 Sm: 0 	 T: memcpy_h2d(1.758947)
F:  6192688----T:  6195293 	 St: c11af000 Sz: 4096 	 Sm: 0 	 T: memcpy_h2d(1.758947)
F:  6195293----T:  6197898 	 St: c11a9000 Sz: 4096 	 Sm: 0 	 T: memcpy_h2d(1.758947)
F:  6197898----T:  6200503 	 St: c119d000 Sz: 4096 	 Sm: 0 	 T: memcpy_h2d(1.758947)
F:  6200503----T:  6203108 	 St: c11a3000 Sz: 4096 	 Sm: 0 	 T: memcpy_h2d(1.758947)
F:  6203108----T:  6205713 	 St: c11a4000 Sz: 4096 	 Sm: 0 	 T: memcpy_h2d(1.758947)
F:  6205713----T:  6208318 	 St: c11ab000 Sz: 4096 	 Sm: 0 	 T: memcpy_h2d(1.758947)
F:  6208318----T:  6210923 	 St: c11aa000 Sz: 4096 	 Sm: 0 	 T: memcpy_h2d(1.758947)
F:  6210923----T:  6213528 	 St: c11bb000 Sz: 4096 	 Sm: 0 	 T: memcpy_h2d(1.758947)
F:  6213528----T:  6216133 	 St: c11c4000 Sz: 4096 	 Sm: 0 	 T: memcpy_h2d(1.758947)
F:  6216133----T:  6218738 	 St: c11b5000 Sz: 4096 	 Sm: 0 	 T: memcpy_h2d(1.758947)
F:  6218738----T:  6221343 	 St: c11bc000 Sz: 4096 	 Sm: 0 	 T: memcpy_h2d(1.758947)
F:  6221343----T:  6223948 	 St: c11bd000 Sz: 4096 	 Sm: 0 	 T: memcpy_h2d(1.758947)
F:  6223948----T:  6226553 	 St: c11b0000 Sz: 4096 	 Sm: 0 	 T: memcpy_h2d(1.758947)
F:  6226553----T:  6229158 	 St: c11b7000 Sz: 4096 	 Sm: 0 	 T: memcpy_h2d(1.758947)
F:  6229158----T:  6231763 	 St: c11b1000 Sz: 4096 	 Sm: 0 	 T: memcpy_h2d(1.758947)
F:  6231763----T:  6234368 	 St: c11b8000 Sz: 4096 	 Sm: 0 	 T: memcpy_h2d(1.758947)
F:  6234368----T:  6236973 	 St: c11b6000 Sz: 4096 	 Sm: 0 	 T: memcpy_h2d(1.758947)
F:  6236973----T:  6239578 	 St: c11c3000 Sz: 4096 	 Sm: 0 	 T: memcpy_h2d(1.758947)
F:  6239578----T:  6242183 	 St: c11b2000 Sz: 4096 	 Sm: 0 	 T: memcpy_h2d(1.758947)
F:  6242183----T:  6244788 	 St: c11b9000 Sz: 4096 	 Sm: 0 	 T: memcpy_h2d(1.758947)
F:  6244788----T:  6247393 	 St: c11b3000 Sz: 4096 	 Sm: 0 	 T: memcpy_h2d(1.758947)
F:  6247393----T:  6249998 	 St: c11ba000 Sz: 4096 	 Sm: 0 	 T: memcpy_h2d(1.758947)
F:  6249998----T:  6252603 	 St: c11c5000 Sz: 4096 	 Sm: 0 	 T: memcpy_h2d(1.758947)
F:  6252603----T:  6255208 	 St: c11c7000 Sz: 4096 	 Sm: 0 	 T: memcpy_h2d(1.758947)
F:  6255208----T:  6257813 	 St: c11bf000 Sz: 4096 	 Sm: 0 	 T: memcpy_h2d(1.758947)
F:  6257813----T:  6260418 	 St: c11c6000 Sz: 4096 	 Sm: 0 	 T: memcpy_h2d(1.758947)
F:  6260418----T:  6263023 	 St: c11cc000 Sz: 4096 	 Sm: 0 	 T: memcpy_h2d(1.758947)
F:  6263023----T:  6265628 	 St: c11be000 Sz: 4096 	 Sm: 0 	 T: memcpy_h2d(1.758947)
F:  6265628----T:  6268233 	 St: c11c0000 Sz: 4096 	 Sm: 0 	 T: memcpy_h2d(1.758947)
F:  6268233----T:  6270838 	 St: c11c1000 Sz: 4096 	 Sm: 0 	 T: memcpy_h2d(1.758947)
F:  6270838----T:  6273443 	 St: c11cb000 Sz: 4096 	 Sm: 0 	 T: memcpy_h2d(1.758947)
F:  6273443----T:  6276048 	 St: c11c2000 Sz: 4096 	 Sm: 0 	 T: memcpy_h2d(1.758947)
F:  6276048----T:  6278653 	 St: c11c8000 Sz: 4096 	 Sm: 0 	 T: memcpy_h2d(1.758947)
F:  6278653----T:  6281258 	 St: c11ca000 Sz: 4096 	 Sm: 0 	 T: memcpy_h2d(1.758947)
F:  6281258----T:  6283863 	 St: c11c9000 Sz: 4096 	 Sm: 0 	 T: memcpy_h2d(1.758947)
F:  6284510----T:  6287115 	 St: c1a5d000 Sz: 4096 	 Sm: 0 	 T: memcpy_h2d(1.758947)
F:  6287115----T:  6289720 	 St: c1a5e000 Sz: 4096 	 Sm: 0 	 T: memcpy_h2d(1.758947)
F:  6289720----T:  6292325 	 St: c1a5f000 Sz: 4096 	 Sm: 0 	 T: memcpy_h2d(1.758947)
F:  6292325----T:  6294930 	 St: c11cd000 Sz: 4096 	 Sm: 0 	 T: memcpy_h2d(1.758947)
F:  6294930----T:  6297535 	 St: c11ce000 Sz: 4096 	 Sm: 0 	 T: memcpy_h2d(1.758947)
F:  6297535----T:  6300140 	 St: c11cf000 Sz: 4096 	 Sm: 0 	 T: memcpy_h2d(1.758947)
F:  6301125----T:  6303730 	 St: 0 Sz: 4096 	 Sm: 0 	 T: device_sync(1.758947)
F:  6301125----T:  6309365 	 St: 0 Sz: 61440 	 Sm: 0 	 T: device_sync(5.563808)
F:  6311970----T:  6314575 	 St: 0 Sz: 4096 	 Sm: 0 	 T: device_sync(1.758947)
F:  6311970----T:  6320210 	 St: 0 Sz: 61440 	 Sm: 0 	 T: device_sync(5.563808)
F:  6322815----T:  6325420 	 St: 0 Sz: 4096 	 Sm: 0 	 T: device_sync(1.758947)
F:  6322815----T:  6338510 	 St: 0 Sz: 126976 	 Sm: 0 	 T: device_sync(10.597569)
F:  6341115----T:  6343720 	 St: 0 Sz: 4096 	 Sm: 0 	 T: device_sync(1.758947)
F:  6341115----T:  6371838 	 St: 0 Sz: 258048 	 Sm: 0 	 T: device_sync(20.744766)
F:  6374443----T:  6377048 	 St: 0 Sz: 4096 	 Sm: 0 	 T: device_sync(1.758947)
F:  6374443----T:  6435279 	 St: 0 Sz: 520192 	 Sm: 0 	 T: device_sync(41.077652)
F:  6437884----T:  6440489 	 St: 0 Sz: 4096 	 Sm: 0 	 T: device_sync(1.758947)
F:  6437884----T:  6558973 	 St: 0 Sz: 1044480 	 Sm: 0 	 T: device_sync(81.761650)
F:  6561578----T:  6564183 	 St: 0 Sz: 4096 	 Sm: 0 	 T: device_sync(1.758947)
F:  6561578----T:  6569818 	 St: 0 Sz: 61440 	 Sm: 0 	 T: device_sync(5.563808)
F:  6572423----T:  6575028 	 St: 0 Sz: 4096 	 Sm: 0 	 T: device_sync(1.758947)
F:  6572423----T:  6580663 	 St: 0 Sz: 61440 	 Sm: 0 	 T: device_sync(5.563808)
F:  6583268----T:  6585873 	 St: 0 Sz: 4096 	 Sm: 0 	 T: device_sync(1.758947)
F:  6583268----T:  6598963 	 St: 0 Sz: 126976 	 Sm: 0 	 T: device_sync(10.597569)
F:  6601568----T:  6604173 	 St: 0 Sz: 4096 	 Sm: 0 	 T: device_sync(1.758947)
F:  6601568----T:  6632291 	 St: 0 Sz: 258048 	 Sm: 0 	 T: device_sync(20.744766)
F:  6634896----T:  6637501 	 St: 0 Sz: 4096 	 Sm: 0 	 T: device_sync(1.758947)
F:  6634896----T:  6695732 	 St: 0 Sz: 520192 	 Sm: 0 	 T: device_sync(41.077652)
F:  6698337----T:  6700942 	 St: 0 Sz: 4096 	 Sm: 0 	 T: device_sync(1.758947)
F:  6698337----T:  6819426 	 St: 0 Sz: 1044480 	 Sm: 0 	 T: device_sync(81.761650)
F:  6822031----T:  6824636 	 St: 0 Sz: 4096 	 Sm: 0 	 T: device_sync(1.758947)
F:  6822031----T:  6830271 	 St: 0 Sz: 61440 	 Sm: 0 	 T: device_sync(5.563808)
F:  6832876----T:  6835481 	 St: 0 Sz: 4096 	 Sm: 0 	 T: device_sync(1.758947)
F:  6832876----T:  6841116 	 St: 0 Sz: 61440 	 Sm: 0 	 T: device_sync(5.563808)
F:  6843721----T:  6846326 	 St: 0 Sz: 4096 	 Sm: 0 	 T: device_sync(1.758947)
F:  6843721----T:  6859416 	 St: 0 Sz: 126976 	 Sm: 0 	 T: device_sync(10.597569)
F:  6862021----T:  6864626 	 St: 0 Sz: 4096 	 Sm: 0 	 T: device_sync(1.758947)
F:  6862021----T:  6892744 	 St: 0 Sz: 258048 	 Sm: 0 	 T: device_sync(20.744766)
F:  6895349----T:  6897954 	 St: 0 Sz: 4096 	 Sm: 0 	 T: device_sync(1.758947)
F:  6895349----T:  6956185 	 St: 0 Sz: 520192 	 Sm: 0 	 T: device_sync(41.077652)
F:  6958790----T:  6961395 	 St: 0 Sz: 4096 	 Sm: 0 	 T: device_sync(1.758947)
F:  6958790----T:  7079879 	 St: 0 Sz: 1044480 	 Sm: 0 	 T: device_sync(81.761650)
F:  7082484----T:  7085089 	 St: 0 Sz: 4096 	 Sm: 0 	 T: device_sync(1.758947)
F:  7082484----T:  7090724 	 St: 0 Sz: 61440 	 Sm: 0 	 T: device_sync(5.563808)
F:  7093329----T:  7095934 	 St: 0 Sz: 4096 	 Sm: 0 	 T: device_sync(1.758947)
F:  7093329----T:  7101569 	 St: 0 Sz: 61440 	 Sm: 0 	 T: device_sync(5.563808)
F:  7104174----T:  7106779 	 St: 0 Sz: 4096 	 Sm: 0 	 T: device_sync(1.758947)
F:  7104174----T:  7119869 	 St: 0 Sz: 126976 	 Sm: 0 	 T: device_sync(10.597569)
F:  7122474----T:  7125079 	 St: 0 Sz: 4096 	 Sm: 0 	 T: device_sync(1.758947)
F:  7122474----T:  7153197 	 St: 0 Sz: 258048 	 Sm: 0 	 T: device_sync(20.744766)
F:  7155802----T:  7158407 	 St: 0 Sz: 4096 	 Sm: 0 	 T: device_sync(1.758947)
F:  7155802----T:  7216638 	 St: 0 Sz: 520192 	 Sm: 0 	 T: device_sync(41.077652)
F:  7219243----T:  7221848 	 St: 0 Sz: 4096 	 Sm: 0 	 T: device_sync(1.758947)
F:  7219243----T:  7340332 	 St: 0 Sz: 1044480 	 Sm: 0 	 T: device_sync(81.761650)
F:  7342937----T:  7345542 	 St: 0 Sz: 4096 	 Sm: 0 	 T: device_sync(1.758947)
F:  7342937----T:  7351177 	 St: 0 Sz: 61440 	 Sm: 0 	 T: device_sync(5.563808)
F:  7353782----T:  7356387 	 St: 0 Sz: 4096 	 Sm: 0 	 T: device_sync(1.758947)
F:  7353782----T:  7362022 	 St: 0 Sz: 61440 	 Sm: 0 	 T: device_sync(5.563808)
F:  7364627----T:  7367232 	 St: 0 Sz: 4096 	 Sm: 0 	 T: device_sync(1.758947)
F:  7364627----T:  7380322 	 St: 0 Sz: 126976 	 Sm: 0 	 T: device_sync(10.597569)
F:  7382927----T:  7385532 	 St: 0 Sz: 4096 	 Sm: 0 	 T: device_sync(1.758947)
F:  7382927----T:  7413650 	 St: 0 Sz: 258048 	 Sm: 0 	 T: device_sync(20.744766)
F:  7416255----T:  7418860 	 St: 0 Sz: 4096 	 Sm: 0 	 T: device_sync(1.758947)
F:  7416255----T:  7477091 	 St: 0 Sz: 520192 	 Sm: 0 	 T: device_sync(41.077652)
F:  7479696----T:  7482301 	 St: 0 Sz: 4096 	 Sm: 0 	 T: device_sync(1.758947)
F:  7479696----T:  7600785 	 St: 0 Sz: 1044480 	 Sm: 0 	 T: device_sync(81.761650)
F:  7603390----T:  7605995 	 St: 0 Sz: 4096 	 Sm: 0 	 T: device_sync(1.758947)
F:  7603390----T:  7611630 	 St: 0 Sz: 61440 	 Sm: 0 	 T: device_sync(5.563808)
F:  7614235----T:  7616840 	 St: 0 Sz: 4096 	 Sm: 0 	 T: device_sync(1.758947)
F:  7614235----T:  7622475 	 St: 0 Sz: 61440 	 Sm: 0 	 T: device_sync(5.563808)
F:  7625080----T:  7627685 	 St: 0 Sz: 4096 	 Sm: 0 	 T: device_sync(1.758947)
F:  7625080----T:  7640775 	 St: 0 Sz: 126976 	 Sm: 0 	 T: device_sync(10.597569)
F:  7643380----T:  7645985 	 St: 0 Sz: 4096 	 Sm: 0 	 T: device_sync(1.758947)
F:  7643380----T:  7674103 	 St: 0 Sz: 258048 	 Sm: 0 	 T: device_sync(20.744766)
F:  7676708----T:  7679313 	 St: 0 Sz: 4096 	 Sm: 0 	 T: device_sync(1.758947)
F:  7676708----T:  7737544 	 St: 0 Sz: 520192 	 Sm: 0 	 T: device_sync(41.077652)
F:  7740149----T:  7742754 	 St: 0 Sz: 4096 	 Sm: 0 	 T: device_sync(1.758947)
F:  7740149----T:  7861238 	 St: 0 Sz: 1044480 	 Sm: 0 	 T: device_sync(81.761650)
F:  7863843----T:  7866448 	 St: 0 Sz: 4096 	 Sm: 0 	 T: device_sync(1.758947)
F:  7863843----T:  7872083 	 St: 0 Sz: 61440 	 Sm: 0 	 T: device_sync(5.563808)
F:  7874688----T:  7877293 	 St: 0 Sz: 4096 	 Sm: 0 	 T: device_sync(1.758947)
F:  7874688----T:  7882928 	 St: 0 Sz: 61440 	 Sm: 0 	 T: device_sync(5.563808)
F:  7885533----T:  7888138 	 St: 0 Sz: 4096 	 Sm: 0 	 T: device_sync(1.758947)
F:  7885533----T:  7901228 	 St: 0 Sz: 126976 	 Sm: 0 	 T: device_sync(10.597569)
F:  7903833----T:  7906438 	 St: 0 Sz: 4096 	 Sm: 0 	 T: device_sync(1.758947)
F:  7903833----T:  7934556 	 St: 0 Sz: 258048 	 Sm: 0 	 T: device_sync(20.744766)
F:  7937161----T:  7939766 	 St: 0 Sz: 4096 	 Sm: 0 	 T: device_sync(1.758947)
F:  7937161----T:  7997997 	 St: 0 Sz: 520192 	 Sm: 0 	 T: device_sync(41.077652)
F:  8000602----T:  8003207 	 St: 0 Sz: 4096 	 Sm: 0 	 T: device_sync(1.758947)
F:  8000602----T:  8121691 	 St: 0 Sz: 1044480 	 Sm: 0 	 T: device_sync(81.761650)
F:  8124296----T:  8126901 	 St: 0 Sz: 4096 	 Sm: 0 	 T: device_sync(1.758947)
F:  8124296----T:  8132536 	 St: 0 Sz: 61440 	 Sm: 0 	 T: device_sync(5.563808)
F:  8135141----T:  8137746 	 St: 0 Sz: 4096 	 Sm: 0 	 T: device_sync(1.758947)
F:  8135141----T:  8143381 	 St: 0 Sz: 61440 	 Sm: 0 	 T: device_sync(5.563808)
F:  8145986----T:  8148591 	 St: 0 Sz: 4096 	 Sm: 0 	 T: device_sync(1.758947)
F:  8145986----T:  8161681 	 St: 0 Sz: 126976 	 Sm: 0 	 T: device_sync(10.597569)
F:  8164286----T:  8166891 	 St: 0 Sz: 4096 	 Sm: 0 	 T: device_sync(1.758947)
F:  8164286----T:  8195009 	 St: 0 Sz: 258048 	 Sm: 0 	 T: device_sync(20.744766)
F:  8197614----T:  8200219 	 St: 0 Sz: 4096 	 Sm: 0 	 T: device_sync(1.758947)
F:  8197614----T:  8258450 	 St: 0 Sz: 520192 	 Sm: 0 	 T: device_sync(41.077652)
F:  8261055----T:  8263660 	 St: 0 Sz: 4096 	 Sm: 0 	 T: device_sync(1.758947)
F:  8261055----T:  8367080 	 St: 0 Sz: 913408 	 Sm: 0 	 T: device_sync(71.590141)
Tot_prefetch_time: 0(cycle), 0.000000(us)
Tot_kernel_exec_time: 4678254(cycle), 3158.848145(us)
Tot_kernel_exec_time_and_fault_time: 27804069(cycle), 18773.847656(us)
Tot_memcpy_h2d_time: 4014268(cycle), 2710.511719(us)
Tot_memcpy_d2h_time: 0(cycle), 0.000000(us)
Tot_memcpy_time: 4014268(cycle), 2710.511719(us)
Tot_devicesync_time: 3247131(cycle), 2192.525879(us)
Tot_writeback_time: 156636(cycle), 105.763672(us)
Tot_dma_time: 0(cycle), 0.000000(us)
Tot_memcpy_d2h_sync_wb_time: 3403767(cycle), 2298.289551(us)
GPGPU-Sim: *** exit detected ***
