

        *** GPGPU-Sim Simulator Version 3.2.2  [build gpgpu-sim_git-commit-1c1adf09f9d1bccf70ff97255c2b46b40ff0e800_modified_0] ***


GPGPU-Sim PTX: simulation mode 0 (can change with PTX_SIM_MODE_FUNC environment variable:
               1=functional simulation only, 0=detailed performance simulator)
GPGPU-Sim: Configuration options:

-network_mode                           1 # Interconnection network mode
-inter_config_file   config_fermi_islip.icnt # Interconnection network config file
-gpgpu_ptx_use_cuobjdump                    1 # Use cuobjdump to extract ptx and sass from binaries
-gpgpu_experimental_lib_support                    0 # Try to extract code from cuda libraries [Broken because of unknown cudaGetExportTable]
-gpgpu_ptx_convert_to_ptxplus                    0 # Convert SASS (native ISA) to ptxplus and run ptxplus
-gpgpu_ptx_force_max_capability                   20 # Force maximum compute capability
-gpgpu_ptx_inst_debug_to_file                    0 # Dump executed instructions' debug information to file
-gpgpu_ptx_inst_debug_file       inst_debug.txt # Executed instructions' debug output file
-gpgpu_ptx_inst_debug_thread_uid                    1 # Thread UID for executed instructions' debug output
-gpgpu_simd_model                       1 # 1 = post-dominator
-gpgpu_shader_core_pipeline              2048:32 # shader core pipeline config, i.e., {<nthread>:<warpsize>}
-gpgpu_tex_cache:l1  16:128:24,L:R:m:N:L,F:128:4,128:2 # per-shader L1 texture cache  (READ-ONLY) config  {<nsets>:<bsize>:<assoc>,<rep>:<wr>:<alloc>:<wr_alloc>,<mshr>:<N>:<merge>,<mq>:<rf>}
-gpgpu_const_cache:l1 128:64:2,L:R:f:N:L,A:2:64,4 # per-shader L1 constant memory cache  (READ-ONLY) config  {<nsets>:<bsize>:<assoc>,<rep>:<wr>:<alloc>:<wr_alloc>,<mshr>:<N>:<merge>,<mq>} 
-gpgpu_cache:il1     8:128:4,L:R:f:N:L,A:2:48,4 # shader L1 instruction cache config  {<nsets>:<bsize>:<assoc>,<rep>:<wr>:<alloc>:<wr_alloc>,<mshr>:<N>:<merge>,<mq>} 
-gpgpu_cache:dl1     64:128:6,L:L:m:N:H,A:128:8,8 # per-shader L1 data cache config  {<nsets>:<bsize>:<assoc>,<rep>:<wr>:<alloc>:<wr_alloc>,<mshr>:<N>:<merge>,<mq> | none}
-gpgpu_cache:dl1PrefL1                 none # per-shader L1 data cache config  {<nsets>:<bsize>:<assoc>,<rep>:<wr>:<alloc>:<wr_alloc>,<mshr>:<N>:<merge>,<mq> | none}
-gpgpu_cache:dl1PrefShared                 none # per-shader L1 data cache config  {<nsets>:<bsize>:<assoc>,<rep>:<wr>:<alloc>:<wr_alloc>,<mshr>:<N>:<merge>,<mq> | none}
-gmem_skip_L1D                          1 # global memory access skip L1D cache (implements -Xptxas -dlcm=cg, default=no skip)
-gpgpu_perfect_mem                      0 # enable perfect memory mode (no cache miss)
-n_regfile_gating_group                    4 # group of lanes that should be read/written together)
-gpgpu_clock_gated_reg_file                    0 # enable clock gated reg file for power calculations
-gpgpu_clock_gated_lanes                    0 # enable clock gated lanes for power calculations
-gpgpu_shader_registers                65536 # Number of registers per shader core. Limits number of concurrent CTAs. (default 8192)
-gpgpu_shader_cta                      32 # Maximum number of concurrent CTAs in shader (default 8)
-gpgpu_num_cta_barriers                   16 # Maximum number of named barriers per CTA (default 16)
-gpgpu_n_clusters                      28 # number of processing clusters
-gpgpu_n_cores_per_cluster                    1 # number of simd cores per cluster
-gpgpu_n_cluster_ejection_buffer_size                    8 # number of packets in ejection buffer
-gpgpu_n_ldst_response_buffer_size                    2 # number of response packets in ld/st unit ejection buffer
-gpgpu_shmem_size                   16384 # Size of shared memory per shader core (default 16kB)
-gpgpu_shmem_size                   98304 # Size of shared memory per shader core (default 16kB)
-gpgpu_shmem_size_PrefL1                16384 # Size of shared memory per shader core (default 16kB)
-gpgpu_shmem_size_PrefShared                16384 # Size of shared memory per shader core (default 16kB)
-gpgpu_shmem_num_banks                   32 # Number of banks in the shared memory in each shader core (default 16)
-gpgpu_shmem_limited_broadcast                    0 # Limit shared memory to do one broadcast per cycle (default on)
-gpgpu_shmem_warp_parts                    1 # Number of portions a warp is divided into for shared memory bank conflict check 
-gpgpu_warpdistro_shader                   -1 # Specify which shader core to collect the warp size distribution from
-gpgpu_warp_issue_shader                    0 # Specify which shader core to collect the warp issue distribution from
-gpgpu_local_mem_map                    1 # Mapping from local memory space address to simulated GPU physical address space (default = enabled)
-gpgpu_num_reg_banks                   32 # Number of register banks (default = 8)
-gpgpu_reg_bank_use_warp_id                    0 # Use warp ID in mapping registers to banks (default = off)
-gpgpu_operand_collector_num_units_sp                   20 # number of collector units (default = 4)
-gpgpu_operand_collector_num_units_sfu                    4 # number of collector units (default = 4)
-gpgpu_operand_collector_num_units_mem                    8 # number of collector units (default = 2)
-gpgpu_operand_collector_num_units_gen                    0 # number of collector units (default = 0)
-gpgpu_operand_collector_num_in_ports_sp                    4 # number of collector unit in ports (default = 1)
-gpgpu_operand_collector_num_in_ports_sfu                    1 # number of collector unit in ports (default = 1)
-gpgpu_operand_collector_num_in_ports_mem                    1 # number of collector unit in ports (default = 1)
-gpgpu_operand_collector_num_in_ports_gen                    0 # number of collector unit in ports (default = 0)
-gpgpu_operand_collector_num_out_ports_sp                    4 # number of collector unit in ports (default = 1)
-gpgpu_operand_collector_num_out_ports_sfu                    1 # number of collector unit in ports (default = 1)
-gpgpu_operand_collector_num_out_ports_mem                    1 # number of collector unit in ports (default = 1)
-gpgpu_operand_collector_num_out_ports_gen                    0 # number of collector unit in ports (default = 0)
-gpgpu_coalesce_arch                   13 # Coalescing arch (default = 13, anything else is off for now)
-gpgpu_num_sched_per_core                    2 # Number of warp schedulers per core
-gpgpu_max_insn_issue_per_warp                    2 # Max number of instructions that can be issued per warp in one cycle by scheduler
-gpgpu_simt_core_sim_order                    1 # Select the simulation order of cores in a cluster (0=Fix, 1=Round-Robin)
-gpgpu_pipeline_widths        4,1,1,4,1,1,6 # Pipeline widths ID_OC_SP,ID_OC_SFU,ID_OC_MEM,OC_EX_SP,OC_EX_SFU,OC_EX_MEM,EX_WB
-gpgpu_num_sp_units                     4 # Number of SP units (default=1)
-gpgpu_num_sfu_units                    1 # Number of SF units (default=1)
-gpgpu_num_mem_units                    1 # Number if ldst units (default=1) WARNING: not hooked up to anything
-gpgpu_scheduler                      gto # Scheduler configuration: < lrr | gto | two_level_active > If two_level_active:<num_active_warps>:<inner_prioritization>:<outer_prioritization>For complete list of prioritization values see shader.h enum scheduler_prioritization_typeDefault: gto
-gpgpu_concurrent_kernel_sm                    0 # Support concurrent kernels on a SM (default = disabled)
-tlb_size                            4096 # Number of tlb entries per SM.
-gpgpu_dram_scheduler                    1 # 0 = fifo, 1 = FR-FCFS (defaul)
-gpgpu_dram_partition_queues              8:8:8:8 # i2$:$2d:d2$:$2i
-l2_ideal                               0 # Use a ideal L2 cache that always hit
-gpgpu_cache:dl2     64:128:16,L:B:m:W:L,A:1024:1024,4:0,32 # unified banked L2 data cache config  {<nsets>:<bsize>:<assoc>,<rep>:<wr>:<alloc>:<wr_alloc>,<mshr>:<N>:<merge>,<mq>}
-gpgpu_cache:dl2_texture_only                    0 # L2 cache used for texture only
-gpgpu_n_mem                           11 # number of memory modules (e.g. memory controllers) in gpu
-gpgpu_n_sub_partition_per_mchannel                    2 # number of memory subpartition in each memory module
-gpgpu_n_mem_per_ctrlr                    1 # number of memory chips per memory controller
-gpgpu_memlatency_stat                   14 # track and display latency statistics 0x2 enables MC, 0x4 enables queue logs
-gpgpu_frfcfs_dram_sched_queue_size                   64 # 0 = unlimited (default); # entries per chip
-gpgpu_dram_return_queue_size                  116 # 0 = unlimited (default); # entries per chip
-gpgpu_dram_buswidth                    4 # default = 4 bytes (8 bytes per cycle at DDR)
-gpgpu_dram_burst_length                    8 # Burst length of each DRAM request (default = 4 data bus cycle)
-dram_data_command_freq_ratio                    4 # Frequency ratio between DRAM data bus and command bus (default = 2 times, i.e. DDR)
-gpgpu_dram_timing_opt nbk=16:CCD=2:RRD=6:RCD=12:RAS=28:RP=12:RC=40: CL=12:WL=4:CDLR=5:WR=12:nbkgrp=1:CCDL=0:RTPL=0 # DRAM timing parameters = {nbk:tCCD:tRRD:tRCD:tRAS:tRP:tRC:CL:WL:tCDLR:tWR:nbkgrp:tCCDL:tRTPL}
-rop_latency                          120 # ROP queue latency (default 85)
-dram_latency                         100 # DRAM latency (default 30)
-gpgpu_mem_addr_mapping dramid@8;00000000.00000000.00000000.00000000.0000RRRR.RRRRRRRR.RBBBCCCC.BCCSSSSS # mapping memory address to dram model {dramid@<start bit>;<memory address map>}
-gpgpu_mem_addr_test                    0 # run sweep test to check address mapping for aliased address
-gpgpu_mem_address_mask                    1 # 0 = old addressing mask, 1 = new addressing mask, 2 = new add. mask + flipped bank sel and chip sel bits
-gpuwattch_xml_file  gpuwattch_geforcegtx1080ti.xml # GPUWattch XML file
-power_simulation_enabled                    1 # Turn on power simulator (1=On, 0=Off)
-power_per_cycle_dump                    0 # Dump detailed power output each cycle
-power_trace_enabled                    0 # produce a file for the power trace (1=On, 0=Off)
-power_trace_zlevel                     6 # Compression level of the power trace output log (0=no comp, 9=highest)
-steady_power_levels_enabled                    0 # produce a file for the steady power levels (1=On, 0=Off)
-steady_state_definition                  8:4 # allowed deviation:number of samples
-gpgpu_max_cycle                        0 # terminates gpu simulation early (0 = no limit)
-gpgpu_max_insn                         0 # terminates gpu simulation early (0 = no limit)
-gpgpu_max_cta                          0 # terminates gpu simulation early (0 = no limit)
-gpgpu_runtime_stat                   500 # display runtime statistics such as dram utilization {<freq>:<flag>}
-liveness_message_freq                    1 # Minimum number of seconds between simulation liveness messages (0 = always print)
-gpgpu_flush_l1_cache                    0 # Flush L1 cache at the end of each kernel call
-gpgpu_flush_l2_cache                    0 # Flush L2 cache at the end of each kernel call
-gpgpu_deadlock_detect                    0 # Stop the simulation at deadlock (1=on (default), 0=off)
-gpgpu_ptx_instruction_classification                    0 # if enabled will classify ptx instruction types per kernel (Max 255 kernels now)
-gpgpu_ptx_sim_mode                     0 # Select between Performance (default) or Functional simulation (1)
-gpgpu_clock_domains 1481.0:2962.0:1481.0:2750.0 # Clock Domain Frequencies in MhZ {<Core Clock>:<ICNT Clock>:<L2 Clock>:<DRAM Clock>}
-gpgpu_max_concurrent_kernel                    8 # maximum kernels that can run concurrently on GPU
-gpgpu_cflog_interval                    0 # Interval between each snapshot in control flow logger
-visualizer_enabled                     0 # Turn on visualizer output (1=On, 0=Off)
-visualizer_outputfile                 NULL # Specifies the output log file for visualizer
-visualizer_zlevel                      6 # Compression level of the visualizer output log (0=no comp, 9=highest)
-trace_enabled                          0 # Turn on traces
-trace_components                    none # comma seperated list of traces to enable. Complete list found in trace_streams.tup. Default none
-trace_sampling_core                    0 # The core which is printed using CORE_DPRINTF. Default 0
-trace_sampling_memory_partition                   -1 # The memory partition which is printed using MEMPART_DPRINTF. Default -1 (i.e. all)
-gddr_size                      10.9091MB # Size of GDDR in MB/GB.(GLOBAL_HEAP_START, GLOBAL_HEAP_START + gddr_size) would be used for unmanged memory, (GLOBAL_HEAP_START + gddr_size, GLOBAL_HEAP_START + gddr_size*2) would be used for managed memory. 
-page_table_walk_latency                  100 # Average page table walk latency (in core cycle).
-eviction_policy                        2 # Select page eviction policy
-invalidate_clean                       0 # Should directly invalidate clean pages
-reserve_accessed_page_percent                    0 # Percentage of accessed pages reserved from eviction in hope that they will be accessed in next iteration.
-percentage_of_free_page_buffer                    0 # Percentage of free page buffer to trigger the page eviction.
-page_size                            4KB # GDDR page size, only 4KB/2MB avaliable.
-pcie_bandwidth                  16.0GB/s # PCI-e bandwidth per direction, in GB/s.
-enable_dma                             0 # Enable direct access to CPU memory
-multiply_dma_penalty                    2 # Oversubscription Multiplicative Penalty Factor for Adaptive DMA
-migrate_threshold                      8 # Access counter threshold for migrating the page from cpu to gpu
-sim_prof_enable                        1 # Enable gpgpu-sim profiler
-hardware_prefetch                      1 # Select gpgpu-sim hardware prefetcher
-hwprefetch_oversub                     0 # Select gpgpu-sim hardware prefetcher under over-subscription
-page_fault_latency                 66645 # Average fault latency (in core cycle).
-enable_accurate_simulation                    0 # Enable page fault functional simulation.
-enable_ptx_file_line_stats                    1 # Turn on PTX source line statistic profiling. (1 = On)
-ptx_line_stats_filename gpgpu_inst_stats.txt # Output file for PTX source line statistics.
-gpgpu_kernel_launch_latency               222150 # Kernel launch latency in cycles. Default: 0
-gpgpu_cdp_enabled                      0 # Turn on CDP
-save_embedded_ptx                      0 # saves ptx files embedded in binary as <n>.ptx
-keep                                   0 # keep intermediate files created by GPGPU-Sim when interfacing with external programs
-gpgpu_ptx_save_converted_ptxplus                    0 # Saved converted ptxplus to a file
-ptx_opcode_latency_int         4,13,4,5,145 # Opcode latencies for integers <ADD,MAX,MUL,MAD,DIV>Default 1,1,19,25,145
-ptx_opcode_latency_fp          4,13,4,5,39 # Opcode latencies for single precision floating points <ADD,MAX,MUL,MAD,DIV>Default 1,1,1,1,30
-ptx_opcode_latency_dp         8,19,8,8,330 # Opcode latencies for double precision floating points <ADD,MAX,MUL,MAD,DIV>Default 8,8,8,8,335
-ptx_opcode_initiation_int            1,2,2,2,8 # Opcode initiation intervals for integers <ADD,MAX,MUL,MAD,DIV>Default 1,1,4,4,32
-ptx_opcode_initiation_fp            1,2,1,1,4 # Opcode initiation intervals for single precision floating points <ADD,MAX,MUL,MAD,DIV>Default 1,1,1,1,5
-ptx_opcode_initiation_dp          1,2,1,1,130 # Opcode initiation intervals for double precision floating points <ADD,MAX,MUL,MAD,DIV>Default 8,8,8,8,130
-cdp_latency         7200,8000,100,12000,1600 # CDP API latency <cudaStreamCreateWithFlags, cudaGetParameterBufferV2_init_perWarp, cudaGetParameterBufferV2_perKernel, cudaLaunchDeviceV2_init_perWarp, cudaLaunchDevicV2_perKernel>Default 7200,8000,100,12000,1600
DRAM Timing Options:
nbk                                    16 # number of banks
CCD                                     2 # column to column delay
RRD                                     6 # minimal delay between activation of rows in different banks
RCD                                    12 # row to column delay
RAS                                    28 # time needed to activate row
RP                                     12 # time needed to precharge (deactivate) row
RC                                     40 # row cycle time
CDLR                                    5 # switching from write to read (changes tWTR)
WR                                     12 # last data-in to row precharge
CL                                     12 # CAS latency
WL                                      4 # Write latency
nbkgrp                                  1 # number of bank groups
CCDL                                    0 # column to column delay between accesses to different bank groups
RTPL                                    0 # read to precharge delay between accesses to different bank groups
Total number of memory sub partition = 22
addr_dec_mask[CHIP]  = 0000000000000000 	high:64 low:0
addr_dec_mask[BK]    = 0000000000007080 	high:15 low:7
addr_dec_mask[ROW]   = 000000000fff8000 	high:28 low:15
addr_dec_mask[COL]   = 0000000000000f7f 	high:12 low:0
addr_dec_mask[BURST] = 000000000000001f 	high:5 low:0
sub_partition_id_mask = 0000000000000080
GPGPU-Sim uArch: clock freqs: 1481000000.000000:2962000000.000000:1481000000.000000:2750000000.000000
GPGPU-Sim uArch: clock periods: 0.00000000067521944632:0.00000000033760972316:0.00000000067521944632:0.00000000036363636364
*** Initializing Memory Statistics ***
GPGPU-Sim uArch: interconnect node map (shaderID+MemID to icntID)
GPGPU-Sim uArch: Memory nodes ID start from index: 28
GPGPU-Sim uArch:    0   1   2   3   4   5   6
GPGPU-Sim uArch:    7   8   9  10  11  12  13
GPGPU-Sim uArch:   14  15  16  17  18  19  20
GPGPU-Sim uArch:   21  22  23  24  25  26  27
GPGPU-Sim uArch:   28  29  30  31  32  33  34
GPGPU-Sim uArch:   35  36  37  38  39  40  41
GPGPU-Sim uArch:   42  43  44  45  46  47  48
GPGPU-Sim uArch:   49
GPGPU-Sim uArch: interconnect node reverse map (icntID to shaderID+MemID)
GPGPU-Sim uArch: Memory nodes start from ID: 28
GPGPU-Sim uArch:    0   1   2   3   4   5   6
GPGPU-Sim uArch:    7   8   9  10  11  12  13
GPGPU-Sim uArch:   14  15  16  17  18  19  20
GPGPU-Sim uArch:   21  22  23  24  25  26  27
GPGPU-Sim uArch:   28  29  30  31  32  33  34
GPGPU-Sim uArch:   35  36  37  38  39  40  41
GPGPU-Sim uArch:   42  43  44  45  46  47  48
GPGPU-Sim uArch:   49
503228a84c5acce04febe5a767a6866d  /root/gpgpu-sim_UVMSmart/benchmarks/Managed/hotspot/hotspot
GPGPU-Sim uArch: performance model initialization complete.
GPGPU-Sim PTX: __cudaRegisterFatBinary, fat_cubin_handle = 1, filename=default
self exe links to: /root/gpgpu-sim_UVMSmart/benchmarks/Managed/hotspot/hotspot
Running md5sum using "md5sum /root/gpgpu-sim_UVMSmart/benchmarks/Managed/hotspot/hotspot "
Parsing file _cuobjdump_complete_output_x1DUon
######### cuobjdump parser ########
## Adding new section ELF
Adding arch: sm_20
Adding identifier: default
## Adding new section ELF
Adding arch: sm_20
Adding identifier: default
## Adding new section PTX
Adding ptx filename: _cuobjdump_1.ptx
Adding arch: sm_20
Adding identifier: default
Done parsing!!!
GPGPU-Sim PTX: __cudaRegisterFunction _Z14calculate_tempiPfS_S_iiiiffffff : hostFun 0x0x401ae2, fat_cubin_handle = 1
GPGPU-Sim PTX: allocating shared region for "_Z14calculate_tempiPfS_S_iiiiffffff$__cuda_local_var_16165_39_non_const_temp_on_cuda" from 0x0 to 0x400 (shared memory space)
GPGPU-Sim PTX: allocating shared region for "_Z14calculate_tempiPfS_S_iiiiffffff$__cuda_local_var_16166_39_non_const_power_on_cuda" from 0x400 to 0x800 (shared memory space)
GPGPU-Sim PTX: allocating shared region for "_Z14calculate_tempiPfS_S_iiiiffffff$__cuda_local_var_16167_39_non_const_temp_t" from 0x800 to 0xc00 (shared memory space)
GPGPU-Sim PTX: instruction assembly for function '_Z14calculate_tempiPfS_S_iiiiffffff'...   done.
GPGPU-Sim PTX: finding reconvergence points for '_Z14calculate_tempiPfS_S_iiiiffffff'...
GPGPU-Sim PTX: Finding dominators for '_Z14calculate_tempiPfS_S_iiiiffffff'...
GPGPU-Sim PTX: Finding immediate dominators for '_Z14calculate_tempiPfS_S_iiiiffffff'...
GPGPU-Sim PTX: Finding postdominators for '_Z14calculate_tempiPfS_S_iiiiffffff'...
GPGPU-Sim PTX: Finding immediate postdominators for '_Z14calculate_tempiPfS_S_iiiiffffff'...
GPGPU-Sim PTX: pre-decoding instructions for '_Z14calculate_tempiPfS_S_iiiiffffff'...
GPGPU-Sim PTX: reconvergence points for _Z14calculate_tempiPfS_S_iiiiffffff...
GPGPU-Sim PTX:  1 (potential) branch divergence @  PC=0x118 (_1.ptx:82) @!%p7 bra BB0_2;
GPGPU-Sim PTX:    immediate post dominator      @  PC=0x1b8 (_1.ptx:106) bar.sync 0;
GPGPU-Sim PTX:  2 (potential) branch divergence @  PC=0x120 (_1.ptx:83) bra.uni BB0_1;
GPGPU-Sim PTX:    immediate post dominator      @  PC=0x128 (_1.ptx:86) mad.lo.s32 %r27, %r1, %r10, %r2;
GPGPU-Sim PTX:  3 (potential) branch divergence @  PC=0x1c8 (_1.ptx:108) @%p8 bra BB0_11;
GPGPU-Sim PTX:    immediate post dominator      @  PC=0x5b0 (_1.ptx:247) and.b16 %rs7, %rs8, 255;
GPGPU-Sim PTX:  4 (potential) branch divergence @  PC=0x338 (_1.ptx:157) @!%p15 bra BB0_7;
GPGPU-Sim PTX:    immediate post dominator      @  PC=0x538 (_1.ptx:226) bar.sync 0;
GPGPU-Sim PTX:  5 (potential) branch divergence @  PC=0x340 (_1.ptx:158) bra.uni BB0_5;
GPGPU-Sim PTX:    immediate post dominator      @  PC=0x348 (_1.ptx:161) setp.gt.s32%p16, %r23, %r6;
GPGPU-Sim PTX:  6 (potential) branch divergence @  PC=0x3d0 (_1.ptx:178) @%p28 bra BB0_7;
GPGPU-Sim PTX:    immediate post dominator      @  PC=0x538 (_1.ptx:226) bar.sync 0;
GPGPU-Sim PTX:  7 (potential) branch divergence @  PC=0x548 (_1.ptx:228) @%p31 bra BB0_11;
GPGPU-Sim PTX:    immediate post dominator      @  PC=0x5b0 (_1.ptx:247) and.b16 %rs7, %rs8, 255;
GPGPU-Sim PTX:  8 (potential) branch divergence @  PC=0x558 (_1.ptx:231) @%p32 bra BB0_10;
GPGPU-Sim PTX:    immediate post dominator      @  PC=0x590 (_1.ptx:241) bar.sync 0;
GPGPU-Sim PTX:  9 (potential) branch divergence @  PC=0x5a8 (_1.ptx:244) @%p33 bra BB0_4;
GPGPU-Sim PTX:    immediate post dominator      @  PC=0x5b0 (_1.ptx:247) and.b16 %rs7, %rs8, 255;
GPGPU-Sim PTX: 10 (potential) branch divergence @  PC=0x5c0 (_1.ptx:249) @%p34 bra BB0_13;
GPGPU-Sim PTX:    immediate post dominator      @  PC=0x620 (_1.ptx:264) ret;
GPGPU-Sim PTX: ... end of reconvergence points for _Z14calculate_tempiPfS_S_iiiiffffff
GPGPU-Sim PTX: ... done pre-decoding instructions for '_Z14calculate_tempiPfS_S_iiiiffffff'.
GPGPU-Sim PTX: finished parsing EMBEDDED .ptx file _1.ptx
Adding _cuobjdump_1.ptx with cubin handle 1
GPGPU-Sim PTX: extracting embedded .ptx to temporary file "_ptx_IwhTH8"
Running: cat _ptx_IwhTH8 | sed 's/.version 1.5/.version 1.4/' | sed 's/, texmode_independent//' | sed 's/\(\.extern \.const\[1\] .b8 \w\+\)\[\]/\1\[1\]/' | sed 's/const\[.\]/const\[0\]/g' > _ptx2_xiaT0T
GPGPU-Sim PTX: generating ptxinfo using "$CUDA_INSTALL_PATH/bin/ptxas --gpu-name=sm_20 -v _ptx2_xiaT0T --output-file  /dev/null 2> _ptx_IwhTH8info"
GPGPU-Sim PTX: Kernel '_Z14calculate_tempiPfS_S_iiiiffffff' : regs=34, lmem=0, smem=3072, cmem=120
GPGPU-Sim PTX: removing ptxinfo using "rm -f _ptx_IwhTH8 _ptx2_xiaT0T _ptx_IwhTH8info"
GPGPU-Sim PTX: loading globals with explicit initializers... 
GPGPU-Sim PTX: finished loading globals (0 bytes total).
GPGPU-Sim PTX: loading constants with explicit initializers...  done.
WG size of kernel = 16 X 16
pyramidHeight: 2
gridSize: [1024, 1024]
border:[2, 2]
blockGrid:[86, 86]
targetBlock:[12, 12]
Start computing the transient temperature

GPGPU-Sim PTX: cudaLaunch for 0x0x401ae2 (mode=performance simulation) on stream 0
GPGPU-Sim PTX: pushing kernel '_Z14calculate_tempiPfS_S_iiiiffffff' to stream 0, gridDim= (86,86,1) blockDim = (16,16,1) 
GPGPU-Sim uArch: Shader 1 bind to kernel 1 '_Z14calculate_tempiPfS_S_iiiiffffff'
GPGPU-Sim uArch: CTA/core = 7, limited by: regs
GPGPU-Sim uArch: Shader 2 bind to kernel 1 '_Z14calculate_tempiPfS_S_iiiiffffff'
GPGPU-Sim uArch: Shader 3 bind to kernel 1 '_Z14calculate_tempiPfS_S_iiiiffffff'
GPGPU-Sim uArch: Shader 4 bind to kernel 1 '_Z14calculate_tempiPfS_S_iiiiffffff'
GPGPU-Sim uArch: Shader 5 bind to kernel 1 '_Z14calculate_tempiPfS_S_iiiiffffff'
GPGPU-Sim uArch: Shader 6 bind to kernel 1 '_Z14calculate_tempiPfS_S_iiiiffffff'
GPGPU-Sim uArch: Shader 7 bind to kernel 1 '_Z14calculate_tempiPfS_S_iiiiffffff'
GPGPU-Sim uArch: Shader 8 bind to kernel 1 '_Z14calculate_tempiPfS_S_iiiiffffff'
GPGPU-Sim uArch: Shader 9 bind to kernel 1 '_Z14calculate_tempiPfS_S_iiiiffffff'
GPGPU-Sim uArch: Shader 10 bind to kernel 1 '_Z14calculate_tempiPfS_S_iiiiffffff'
GPGPU-Sim uArch: Shader 11 bind to kernel 1 '_Z14calculate_tempiPfS_S_iiiiffffff'
GPGPU-Sim uArch: Shader 12 bind to kernel 1 '_Z14calculate_tempiPfS_S_iiiiffffff'
GPGPU-Sim uArch: Shader 13 bind to kernel 1 '_Z14calculate_tempiPfS_S_iiiiffffff'
GPGPU-Sim uArch: Shader 14 bind to kernel 1 '_Z14calculate_tempiPfS_S_iiiiffffff'
GPGPU-Sim uArch: Shader 15 bind to kernel 1 '_Z14calculate_tempiPfS_S_iiiiffffff'
GPGPU-Sim uArch: Shader 16 bind to kernel 1 '_Z14calculate_tempiPfS_S_iiiiffffff'
GPGPU-Sim uArch: Shader 17 bind to kernel 1 '_Z14calculate_tempiPfS_S_iiiiffffff'
GPGPU-Sim uArch: Shader 18 bind to kernel 1 '_Z14calculate_tempiPfS_S_iiiiffffff'
GPGPU-Sim uArch: Shader 19 bind to kernel 1 '_Z14calculate_tempiPfS_S_iiiiffffff'
GPGPU-Sim uArch: Shader 20 bind to kernel 1 '_Z14calculate_tempiPfS_S_iiiiffffff'
GPGPU-Sim uArch: Shader 21 bind to kernel 1 '_Z14calculate_tempiPfS_S_iiiiffffff'
GPGPU-Sim uArch: Shader 22 bind to kernel 1 '_Z14calculate_tempiPfS_S_iiiiffffff'
GPGPU-Sim uArch: Shader 23 bind to kernel 1 '_Z14calculate_tempiPfS_S_iiiiffffff'
GPGPU-Sim uArch: Shader 24 bind to kernel 1 '_Z14calculate_tempiPfS_S_iiiiffffff'
GPGPU-Sim uArch: Shader 25 bind to kernel 1 '_Z14calculate_tempiPfS_S_iiiiffffff'
GPGPU-Sim uArch: Shader 26 bind to kernel 1 '_Z14calculate_tempiPfS_S_iiiiffffff'
GPGPU-Sim uArch: Shader 27 bind to kernel 1 '_Z14calculate_tempiPfS_S_iiiiffffff'
GPGPU-Sim uArch: Shader 0 bind to kernel 1 '_Z14calculate_tempiPfS_S_iiiiffffff'
GPGPU-Sim uArch: Shader 1 bind to kernel 1 '_Z14calculate_tempiPfS_S_iiiiffffff'
GPGPU-Sim uArch: Shader 2 bind to kernel 1 '_Z14calculate_tempiPfS_S_iiiiffffff'
GPGPU-Sim uArch: Shader 3 bind to kernel 1 '_Z14calculate_tempiPfS_S_iiiiffffff'
GPGPU-Sim uArch: Shader 4 bind to kernel 1 '_Z14calculate_tempiPfS_S_iiiiffffff'
GPGPU-Sim uArch: Shader 7 bind to kernel 1 '_Z14calculate_tempiPfS_S_iiiiffffff'
GPGPU-Sim uArch: Shader 13 bind to kernel 1 '_Z14calculate_tempiPfS_S_iiiiffffff'
GPGPU-Sim uArch: Shader 15 bind to kernel 1 '_Z14calculate_tempiPfS_S_iiiiffffff'
GPGPU-Sim uArch: Shader 17 bind to kernel 1 '_Z14calculate_tempiPfS_S_iiiiffffff'
GPGPU-Sim uArch: Shader 18 bind to kernel 1 '_Z14calculate_tempiPfS_S_iiiiffffff'
GPGPU-Sim uArch: Shader 21 bind to kernel 1 '_Z14calculate_tempiPfS_S_iiiiffffff'
GPGPU-Sim uArch: Shader 24 bind to kernel 1 '_Z14calculate_tempiPfS_S_iiiiffffff'
GPGPU-Sim uArch: Shader 25 bind to kernel 1 '_Z14calculate_tempiPfS_S_iiiiffffff'
GPGPU-Sim uArch: Shader 27 bind to kernel 1 '_Z14calculate_tempiPfS_S_iiiiffffff'
GPGPU-Sim uArch: Shader 0 bind to kernel 1 '_Z14calculate_tempiPfS_S_iiiiffffff'
GPGPU-Sim uArch: Shader 14 bind to kernel 1 '_Z14calculate_tempiPfS_S_iiiiffffff'
GPGPU-Sim uArch: Shader 15 bind to kernel 1 '_Z14calculate_tempiPfS_S_iiiiffffff'
GPGPU-Sim uArch: Shader 18 bind to kernel 1 '_Z14calculate_tempiPfS_S_iiiiffffff'
GPGPU-Sim uArch: Shader 22 bind to kernel 1 '_Z14calculate_tempiPfS_S_iiiiffffff'
GPGPU-Sim uArch: Shader 23 bind to kernel 1 '_Z14calculate_tempiPfS_S_iiiiffffff'
GPGPU-Sim uArch: Shader 27 bind to kernel 1 '_Z14calculate_tempiPfS_S_iiiiffffff'
GPGPU-Sim uArch: Shader 4 bind to kernel 1 '_Z14calculate_tempiPfS_S_iiiiffffff'
GPGPU-Sim uArch: Shader 8 bind to kernel 1 '_Z14calculate_tempiPfS_S_iiiiffffff'
GPGPU-Sim uArch: Shader 11 bind to kernel 1 '_Z14calculate_tempiPfS_S_iiiiffffff'
GPGPU-Sim uArch: Shader 12 bind to kernel 1 '_Z14calculate_tempiPfS_S_iiiiffffff'
GPGPU-Sim uArch: Shader 13 bind to kernel 1 '_Z14calculate_tempiPfS_S_iiiiffffff'
GPGPU-Sim uArch: Shader 15 bind to kernel 1 '_Z14calculate_tempiPfS_S_iiiiffffff'
GPGPU-Sim uArch: Shader 20 bind to kernel 1 '_Z14calculate_tempiPfS_S_iiiiffffff'
GPGPU-Sim uArch: Shader 24 bind to kernel 1 '_Z14calculate_tempiPfS_S_iiiiffffff'
GPGPU-Sim uArch: Shader 4 bind to kernel 1 '_Z14calculate_tempiPfS_S_iiiiffffff'
GPGPU-Sim uArch: Shader 6 bind to kernel 1 '_Z14calculate_tempiPfS_S_iiiiffffff'
GPGPU-Sim uArch: Shader 12 bind to kernel 1 '_Z14calculate_tempiPfS_S_iiiiffffff'
GPGPU-Sim uArch: Shader 13 bind to kernel 1 '_Z14calculate_tempiPfS_S_iiiiffffff'
GPGPU-Sim uArch: Shader 22 bind to kernel 1 '_Z14calculate_tempiPfS_S_iiiiffffff'
GPGPU-Sim uArch: Shader 24 bind to kernel 1 '_Z14calculate_tempiPfS_S_iiiiffffff'
GPGPU-Sim uArch: Shader 9 bind to kernel 1 '_Z14calculate_tempiPfS_S_iiiiffffff'
GPGPU-Sim uArch: Shader 10 bind to kernel 1 '_Z14calculate_tempiPfS_S_iiiiffffff'
GPGPU-Sim uArch: Shader 11 bind to kernel 1 '_Z14calculate_tempiPfS_S_iiiiffffff'
GPGPU-Sim uArch: Shader 12 bind to kernel 1 '_Z14calculate_tempiPfS_S_iiiiffffff'
GPGPU-Sim uArch: Shader 13 bind to kernel 1 '_Z14calculate_tempiPfS_S_iiiiffffff'
GPGPU-Sim uArch: Shader 15 bind to kernel 1 '_Z14calculate_tempiPfS_S_iiiiffffff'
GPGPU-Sim uArch: Shader 16 bind to kernel 1 '_Z14calculate_tempiPfS_S_iiiiffffff'
GPGPU-Sim uArch: Shader 18 bind to kernel 1 '_Z14calculate_tempiPfS_S_iiiiffffff'
GPGPU-Sim uArch: Shader 19 bind to kernel 1 '_Z14calculate_tempiPfS_S_iiiiffffff'
GPGPU-Sim uArch: Shader 20 bind to kernel 1 '_Z14calculate_tempiPfS_S_iiiiffffff'
GPGPU-Sim uArch: Shader 22 bind to kernel 1 '_Z14calculate_tempiPfS_S_iiiiffffff'
GPGPU-Sim uArch: Shader 24 bind to kernel 1 '_Z14calculate_tempiPfS_S_iiiiffffff'
GPGPU-Sim uArch: Shader 26 bind to kernel 1 '_Z14calculate_tempiPfS_S_iiiiffffff'
GPGPU-Sim uArch: Shader 27 bind to kernel 1 '_Z14calculate_tempiPfS_S_iiiiffffff'
GPGPU-Sim uArch: Shader 0 bind to kernel 1 '_Z14calculate_tempiPfS_S_iiiiffffff'
GPGPU-Sim uArch: Shader 1 bind to kernel 1 '_Z14calculate_tempiPfS_S_iiiiffffff'
GPGPU-Sim uArch: Shader 4 bind to kernel 1 '_Z14calculate_tempiPfS_S_iiiiffffff'
GPGPU-Sim uArch: Shader 6 bind to kernel 1 '_Z14calculate_tempiPfS_S_iiiiffffff'
GPGPU-Sim uArch: Shader 7 bind to kernel 1 '_Z14calculate_tempiPfS_S_iiiiffffff'
GPGPU-Sim uArch: Shader 9 bind to kernel 1 '_Z14calculate_tempiPfS_S_iiiiffffff'
GPGPU-Sim uArch: Shader 14 bind to kernel 1 '_Z14calculate_tempiPfS_S_iiiiffffff'
GPGPU-Sim uArch: Shader 17 bind to kernel 1 '_Z14calculate_tempiPfS_S_iiiiffffff'
GPGPU-Sim uArch: Shader 21 bind to kernel 1 '_Z14calculate_tempiPfS_S_iiiiffffff'
GPGPU-Sim uArch: Shader 23 bind to kernel 1 '_Z14calculate_tempiPfS_S_iiiiffffff'
GPGPU-Sim uArch: Shader 25 bind to kernel 1 '_Z14calculate_tempiPfS_S_iiiiffffff'
GPGPU-Sim uArch: Shader 3 bind to kernel 1 '_Z14calculate_tempiPfS_S_iiiiffffff'
GPGPU-Sim uArch: Shader 5 bind to kernel 1 '_Z14calculate_tempiPfS_S_iiiiffffff'
GPGPU-Sim uArch: Shader 7 bind to kernel 1 '_Z14calculate_tempiPfS_S_iiiiffffff'
GPGPU-Sim uArch: Shader 22 bind to kernel 1 '_Z14calculate_tempiPfS_S_iiiiffffff'
GPGPU-Sim uArch: Shader 27 bind to kernel 1 '_Z14calculate_tempiPfS_S_iiiiffffff'
GPGPU-Sim uArch: Shader 20 bind to kernel 1 '_Z14calculate_tempiPfS_S_iiiiffffff'
GPGPU-Sim uArch: Shader 14 bind to kernel 1 '_Z14calculate_tempiPfS_S_iiiiffffff'
GPGPU-Sim uArch: Shader 15 bind to kernel 1 '_Z14calculate_tempiPfS_S_iiiiffffff'
GPGPU-Sim uArch: Shader 16 bind to kernel 1 '_Z14calculate_tempiPfS_S_iiiiffffff'
GPGPU-Sim uArch: Shader 17 bind to kernel 1 '_Z14calculate_tempiPfS_S_iiiiffffff'
GPGPU-Sim uArch: Shader 18 bind to kernel 1 '_Z14calculate_tempiPfS_S_iiiiffffff'
GPGPU-Sim uArch: Shader 19 bind to kernel 1 '_Z14calculate_tempiPfS_S_iiiiffffff'
GPGPU-Sim uArch: Shader 20 bind to kernel 1 '_Z14calculate_tempiPfS_S_iiiiffffff'
GPGPU-Sim uArch: Shader 21 bind to kernel 1 '_Z14calculate_tempiPfS_S_iiiiffffff'
GPGPU-Sim uArch: Shader 22 bind to kernel 1 '_Z14calculate_tempiPfS_S_iiiiffffff'
GPGPU-Sim uArch: Shader 23 bind to kernel 1 '_Z14calculate_tempiPfS_S_iiiiffffff'
GPGPU-Sim uArch: Shader 25 bind to kernel 1 '_Z14calculate_tempiPfS_S_iiiiffffff'
GPGPU-Sim uArch: Shader 26 bind to kernel 1 '_Z14calculate_tempiPfS_S_iiiiffffff'
GPGPU-Sim uArch: Shader 12 bind to kernel 1 '_Z14calculate_tempiPfS_S_iiiiffffff'
GPGPU-Sim uArch: Shader 14 bind to kernel 1 '_Z14calculate_tempiPfS_S_iiiiffffff'
GPGPU-Sim uArch: Shader 15 bind to kernel 1 '_Z14calculate_tempiPfS_S_iiiiffffff'
GPGPU-Sim uArch: Shader 16 bind to kernel 1 '_Z14calculate_tempiPfS_S_iiiiffffff'
GPGPU-Sim uArch: Shader 17 bind to kernel 1 '_Z14calculate_tempiPfS_S_iiiiffffff'
GPGPU-Sim uArch: Shader 18 bind to kernel 1 '_Z14calculate_tempiPfS_S_iiiiffffff'
GPGPU-Sim uArch: Shader 19 bind to kernel 1 '_Z14calculate_tempiPfS_S_iiiiffffff'
GPGPU-Sim uArch: Shader 20 bind to kernel 1 '_Z14calculate_tempiPfS_S_iiiiffffff'
GPGPU-Sim uArch: Shader 21 bind to kernel 1 '_Z14calculate_tempiPfS_S_iiiiffffff'
GPGPU-Sim uArch: Shader 22 bind to kernel 1 '_Z14calculate_tempiPfS_S_iiiiffffff'
GPGPU-Sim uArch: Shader 23 bind to kernel 1 '_Z14calculate_tempiPfS_S_iiiiffffff'
GPGPU-Sim uArch: Shader 24 bind to kernel 1 '_Z14calculate_tempiPfS_S_iiiiffffff'
GPGPU-Sim uArch: Shader 25 bind to kernel 1 '_Z14calculate_tempiPfS_S_iiiiffffff'
GPGPU-Sim uArch: Shader 26 bind to kernel 1 '_Z14calculate_tempiPfS_S_iiiiffffff'
GPGPU-Sim uArch: Shader 1 bind to kernel 1 '_Z14calculate_tempiPfS_S_iiiiffffff'
GPGPU-Sim uArch: Shader 2 bind to kernel 1 '_Z14calculate_tempiPfS_S_iiiiffffff'
GPGPU-Sim uArch: Shader 21 bind to kernel 1 '_Z14calculate_tempiPfS_S_iiiiffffff'
GPGPU-Sim uArch: Shader 22 bind to kernel 1 '_Z14calculate_tempiPfS_S_iiiiffffff'
GPGPU-Sim uArch: Shader 23 bind to kernel 1 '_Z14calculate_tempiPfS_S_iiiiffffff'
GPGPU-Sim uArch: Shader 24 bind to kernel 1 '_Z14calculate_tempiPfS_S_iiiiffffff'
GPGPU-Sim uArch: Shader 25 bind to kernel 1 '_Z14calculate_tempiPfS_S_iiiiffffff'
GPGPU-Sim uArch: Shader 26 bind to kernel 1 '_Z14calculate_tempiPfS_S_iiiiffffff'
GPGPU-Sim uArch: Shader 27 bind to kernel 1 '_Z14calculate_tempiPfS_S_iiiiffffff'
GPGPU-Sim uArch: Shader 0 bind to kernel 1 '_Z14calculate_tempiPfS_S_iiiiffffff'
GPGPU-Sim uArch: Shader 1 bind to kernel 1 '_Z14calculate_tempiPfS_S_iiiiffffff'
GPGPU-Sim uArch: Shader 2 bind to kernel 1 '_Z14calculate_tempiPfS_S_iiiiffffff'
GPGPU-Sim uArch: Shader 3 bind to kernel 1 '_Z14calculate_tempiPfS_S_iiiiffffff'
GPGPU-Sim uArch: Shader 14 bind to kernel 1 '_Z14calculate_tempiPfS_S_iiiiffffff'
GPGPU-Sim uArch: Shader 15 bind to kernel 1 '_Z14calculate_tempiPfS_S_iiiiffffff'
GPGPU-Sim uArch: Shader 26 bind to kernel 1 '_Z14calculate_tempiPfS_S_iiiiffffff'
GPGPU-Sim uArch: Shader 27 bind to kernel 1 '_Z14calculate_tempiPfS_S_iiiiffffff'
GPGPU-Sim uArch: Shader 3 bind to kernel 1 '_Z14calculate_tempiPfS_S_iiiiffffff'
GPGPU-Sim uArch: Shader 4 bind to kernel 1 '_Z14calculate_tempiPfS_S_iiiiffffff'
GPGPU-Sim uArch: Shader 5 bind to kernel 1 '_Z14calculate_tempiPfS_S_iiiiffffff'
GPGPU-Sim uArch: Shader 7 bind to kernel 1 '_Z14calculate_tempiPfS_S_iiiiffffff'
GPGPU-Sim uArch: Shader 10 bind to kernel 1 '_Z14calculate_tempiPfS_S_iiiiffffff'
GPGPU-Sim uArch: Shader 11 bind to kernel 1 '_Z14calculate_tempiPfS_S_iiiiffffff'
GPGPU-Sim uArch: Shader 12 bind to kernel 1 '_Z14calculate_tempiPfS_S_iiiiffffff'
GPGPU-Sim uArch: Shader 13 bind to kernel 1 '_Z14calculate_tempiPfS_S_iiiiffffff'
GPGPU-Sim uArch: Shader 14 bind to kernel 1 '_Z14calculate_tempiPfS_S_iiiiffffff'
GPGPU-Sim uArch: Shader 15 bind to kernel 1 '_Z14calculate_tempiPfS_S_iiiiffffff'
GPGPU-Sim uArch: Shader 5 bind to kernel 1 '_Z14calculate_tempiPfS_S_iiiiffffff'
GPGPU-Sim uArch: Shader 6 bind to kernel 1 '_Z14calculate_tempiPfS_S_iiiiffffff'
GPGPU-Sim uArch: Shader 7 bind to kernel 1 '_Z14calculate_tempiPfS_S_iiiiffffff'
GPGPU-Sim uArch: Shader 8 bind to kernel 1 '_Z14calculate_tempiPfS_S_iiiiffffff'
GPGPU-Sim uArch: Shader 9 bind to kernel 1 '_Z14calculate_tempiPfS_S_iiiiffffff'
GPGPU-Sim uArch: Shader 10 bind to kernel 1 '_Z14calculate_tempiPfS_S_iiiiffffff'
GPGPU-Sim uArch: Shader 11 bind to kernel 1 '_Z14calculate_tempiPfS_S_iiiiffffff'
GPGPU-Sim uArch: Shader 14 bind to kernel 1 '_Z14calculate_tempiPfS_S_iiiiffffff'
GPGPU-Sim uArch: Shader 15 bind to kernel 1 '_Z14calculate_tempiPfS_S_iiiiffffff'
GPGPU-Sim uArch: Shader 17 bind to kernel 1 '_Z14calculate_tempiPfS_S_iiiiffffff'
GPGPU-Sim uArch: Shader 4 bind to kernel 1 '_Z14calculate_tempiPfS_S_iiiiffffff'
GPGPU-Sim uArch: Shader 5 bind to kernel 1 '_Z14calculate_tempiPfS_S_iiiiffffff'
GPGPU-Sim uArch: Shader 7 bind to kernel 1 '_Z14calculate_tempiPfS_S_iiiiffffff'
GPGPU-Sim uArch: Shader 10 bind to kernel 1 '_Z14calculate_tempiPfS_S_iiiiffffff'
GPGPU-Sim uArch: Shader 15 bind to kernel 1 '_Z14calculate_tempiPfS_S_iiiiffffff'
GPGPU-Sim uArch: Shader 16 bind to kernel 1 '_Z14calculate_tempiPfS_S_iiiiffffff'
GPGPU-Sim uArch: Shader 17 bind to kernel 1 '_Z14calculate_tempiPfS_S_iiiiffffff'
GPGPU-Sim uArch: Shader 20 bind to kernel 1 '_Z14calculate_tempiPfS_S_iiiiffffff'
GPGPU-Sim uArch: Shader 24 bind to kernel 1 '_Z14calculate_tempiPfS_S_iiiiffffff'
Destroy streams for kernel 1: size 0
kernel_name = _Z14calculate_tempiPfS_S_iiiiffffff 
kernel_launch_uid = 1 
gpu_sim_cycle = 2330354
gpu_sim_insn = 415466464
gpu_ipc =     178.2847
gpu_tot_sim_cycle = 2552504
gpu_tot_sim_insn = 415466464
gpu_tot_ipc =     162.7682
gpu_tot_issued_cta = 7396
max_total_param_size = 0
gpu_stall_dramfull = 78284
gpu_stall_icnt2sh    = 645213
partiton_reqs_in_parallel = 51189504
partiton_reqs_in_parallel_total    = 0
partiton_level_parallism =      21.9664
partiton_level_parallism_total  =      20.0546
partiton_reqs_in_parallel_util = 51189504
partiton_reqs_in_parallel_util_total    = 0
gpu_sim_cycle_parition_util = 2329684
gpu_tot_sim_cycle_parition_util    = 0
partiton_level_parallism_util =      21.9727
partiton_level_parallism_util_total  =      21.9727
partiton_replys_in_parallel = 456444
partiton_replys_in_parallel_total    = 0
L2_BW  =      18.5652 GB/Sec
L2_BW_total  =      16.9495 GB/Sec
gpu_total_sim_rate=136352

========= Core cache stats =========
L1I_cache:
	L1I_total_cache_accesses = 7740000
	L1I_total_cache_misses = 8688
	L1I_total_cache_miss_rate = 0.0011
	L1I_total_cache_pending_hits = 0
	L1I_total_cache_reservation_fails = 6846
L1D_cache:
	L1D_cache_core[0]: Access = 0, Miss = 0, Miss_rate = -nan, Pending_hits = 0, Reservation_fails = 0
	L1D_cache_core[1]: Access = 0, Miss = 0, Miss_rate = -nan, Pending_hits = 0, Reservation_fails = 0
	L1D_cache_core[2]: Access = 0, Miss = 0, Miss_rate = -nan, Pending_hits = 0, Reservation_fails = 0
	L1D_cache_core[3]: Access = 0, Miss = 0, Miss_rate = -nan, Pending_hits = 0, Reservation_fails = 0
	L1D_cache_core[4]: Access = 0, Miss = 0, Miss_rate = -nan, Pending_hits = 0, Reservation_fails = 0
	L1D_cache_core[5]: Access = 0, Miss = 0, Miss_rate = -nan, Pending_hits = 0, Reservation_fails = 0
	L1D_cache_core[6]: Access = 0, Miss = 0, Miss_rate = -nan, Pending_hits = 0, Reservation_fails = 0
	L1D_cache_core[7]: Access = 0, Miss = 0, Miss_rate = -nan, Pending_hits = 0, Reservation_fails = 0
	L1D_cache_core[8]: Access = 0, Miss = 0, Miss_rate = -nan, Pending_hits = 0, Reservation_fails = 0
	L1D_cache_core[9]: Access = 0, Miss = 0, Miss_rate = -nan, Pending_hits = 0, Reservation_fails = 0
	L1D_cache_core[10]: Access = 0, Miss = 0, Miss_rate = -nan, Pending_hits = 0, Reservation_fails = 0
	L1D_cache_core[11]: Access = 0, Miss = 0, Miss_rate = -nan, Pending_hits = 0, Reservation_fails = 0
	L1D_cache_core[12]: Access = 0, Miss = 0, Miss_rate = -nan, Pending_hits = 0, Reservation_fails = 0
	L1D_cache_core[13]: Access = 0, Miss = 0, Miss_rate = -nan, Pending_hits = 0, Reservation_fails = 0
	L1D_cache_core[14]: Access = 0, Miss = 0, Miss_rate = -nan, Pending_hits = 0, Reservation_fails = 0
	L1D_cache_core[15]: Access = 0, Miss = 0, Miss_rate = -nan, Pending_hits = 0, Reservation_fails = 0
	L1D_cache_core[16]: Access = 0, Miss = 0, Miss_rate = -nan, Pending_hits = 0, Reservation_fails = 0
	L1D_cache_core[17]: Access = 0, Miss = 0, Miss_rate = -nan, Pending_hits = 0, Reservation_fails = 0
	L1D_cache_core[18]: Access = 0, Miss = 0, Miss_rate = -nan, Pending_hits = 0, Reservation_fails = 0
	L1D_cache_core[19]: Access = 0, Miss = 0, Miss_rate = -nan, Pending_hits = 0, Reservation_fails = 0
	L1D_cache_core[20]: Access = 0, Miss = 0, Miss_rate = -nan, Pending_hits = 0, Reservation_fails = 0
	L1D_cache_core[21]: Access = 0, Miss = 0, Miss_rate = -nan, Pending_hits = 0, Reservation_fails = 0
	L1D_cache_core[22]: Access = 0, Miss = 0, Miss_rate = -nan, Pending_hits = 0, Reservation_fails = 0
	L1D_cache_core[23]: Access = 0, Miss = 0, Miss_rate = -nan, Pending_hits = 0, Reservation_fails = 0
	L1D_cache_core[24]: Access = 0, Miss = 0, Miss_rate = -nan, Pending_hits = 0, Reservation_fails = 0
	L1D_cache_core[25]: Access = 0, Miss = 0, Miss_rate = -nan, Pending_hits = 0, Reservation_fails = 0
	L1D_cache_core[26]: Access = 0, Miss = 0, Miss_rate = -nan, Pending_hits = 0, Reservation_fails = 0
	L1D_cache_core[27]: Access = 0, Miss = 0, Miss_rate = -nan, Pending_hits = 0, Reservation_fails = 0
	L1D_total_cache_accesses = 0
	L1D_total_cache_misses = 0
	L1D_total_cache_pending_hits = 0
	L1D_total_cache_reservation_fails = 0
	L1D_cache_data_port_util = 0.000
	L1D_cache_fill_port_util = 0.000
L1C_cache:
	L1C_total_cache_accesses = 769184
	L1C_total_cache_misses = 2195
	L1C_total_cache_miss_rate = 0.0029
	L1C_total_cache_pending_hits = 0
	L1C_total_cache_reservation_fails = 4886
L1T_cache:
	L1T_total_cache_accesses = 0
	L1T_total_cache_misses = 0
	L1T_total_cache_pending_hits = 0
	L1T_total_cache_reservation_fails = 0

Total_core_cache_stats:
	Total_core_cache_stats_breakdown[GLOBAL_ACC_R][HIT] = 0
	Total_core_cache_stats_breakdown[GLOBAL_ACC_R][HIT_RESERVED] = 0
	Total_core_cache_stats_breakdown[GLOBAL_ACC_R][MISS] = 0
	Total_core_cache_stats_breakdown[GLOBAL_ACC_R][RESERVATION_FAIL] = 0
	Total_core_cache_stats_breakdown[LOCAL_ACC_R][HIT] = 0
	Total_core_cache_stats_breakdown[LOCAL_ACC_R][HIT_RESERVED] = 0
	Total_core_cache_stats_breakdown[LOCAL_ACC_R][MISS] = 0
	Total_core_cache_stats_breakdown[LOCAL_ACC_R][RESERVATION_FAIL] = 0
	Total_core_cache_stats_breakdown[CONST_ACC_R][HIT] = 766989
	Total_core_cache_stats_breakdown[CONST_ACC_R][HIT_RESERVED] = 0
	Total_core_cache_stats_breakdown[CONST_ACC_R][MISS] = 2195
	Total_core_cache_stats_breakdown[CONST_ACC_R][RESERVATION_FAIL] = 4886
	Total_core_cache_stats_breakdown[TEXTURE_ACC_R][HIT] = 0
	Total_core_cache_stats_breakdown[TEXTURE_ACC_R][HIT_RESERVED] = 0
	Total_core_cache_stats_breakdown[TEXTURE_ACC_R][MISS] = 0
	Total_core_cache_stats_breakdown[TEXTURE_ACC_R][RESERVATION_FAIL] = 0
	Total_core_cache_stats_breakdown[GLOBAL_ACC_W][HIT] = 0
	Total_core_cache_stats_breakdown[GLOBAL_ACC_W][HIT_RESERVED] = 0
	Total_core_cache_stats_breakdown[GLOBAL_ACC_W][MISS] = 0
	Total_core_cache_stats_breakdown[GLOBAL_ACC_W][RESERVATION_FAIL] = 0
	Total_core_cache_stats_breakdown[LOCAL_ACC_W][HIT] = 0
	Total_core_cache_stats_breakdown[LOCAL_ACC_W][HIT_RESERVED] = 0
	Total_core_cache_stats_breakdown[LOCAL_ACC_W][MISS] = 0
	Total_core_cache_stats_breakdown[LOCAL_ACC_W][RESERVATION_FAIL] = 0
	Total_core_cache_stats_breakdown[L1_WRBK_ACC][HIT] = 0
	Total_core_cache_stats_breakdown[L1_WRBK_ACC][HIT_RESERVED] = 0
	Total_core_cache_stats_breakdown[L1_WRBK_ACC][MISS] = 0
	Total_core_cache_stats_breakdown[L1_WRBK_ACC][RESERVATION_FAIL] = 0
	Total_core_cache_stats_breakdown[L2_WRBK_ACC][HIT] = 0
	Total_core_cache_stats_breakdown[L2_WRBK_ACC][HIT_RESERVED] = 0
	Total_core_cache_stats_breakdown[L2_WRBK_ACC][MISS] = 0
	Total_core_cache_stats_breakdown[L2_WRBK_ACC][RESERVATION_FAIL] = 0
	Total_core_cache_stats_breakdown[INST_ACC_R][HIT] = 7731312
	Total_core_cache_stats_breakdown[INST_ACC_R][HIT_RESERVED] = 0
	Total_core_cache_stats_breakdown[INST_ACC_R][MISS] = 8688
	Total_core_cache_stats_breakdown[INST_ACC_R][RESERVATION_FAIL] = 6846
	Total_core_cache_stats_breakdown[L1_WR_ALLOC_R][HIT] = 0
	Total_core_cache_stats_breakdown[L1_WR_ALLOC_R][HIT_RESERVED] = 0
	Total_core_cache_stats_breakdown[L1_WR_ALLOC_R][MISS] = 0
	Total_core_cache_stats_breakdown[L1_WR_ALLOC_R][RESERVATION_FAIL] = 0
	Total_core_cache_stats_breakdown[L2_WR_ALLOC_R][HIT] = 0
	Total_core_cache_stats_breakdown[L2_WR_ALLOC_R][HIT_RESERVED] = 0
	Total_core_cache_stats_breakdown[L2_WR_ALLOC_R][MISS] = 0
	Total_core_cache_stats_breakdown[L2_WR_ALLOC_R][RESERVATION_FAIL] = 0
	Total_core_cache_stats_breakdown[CONST_ACC_R][TOTAL_ACCESS] = 769184
	Total_core_cache_stats_breakdown[INST_ACC_R][TOTAL_ACCESS] = 7740000
Shader 0 warp_id issue ditsribution:
warp_id:
0, 1, 2, 3, 4, 5, 6, 7, 8, 9, 10, 11, 12, 13, 14, 15, 16, 17, 18, 19, 20, 21, 22, 23, 24, 25, 26, 27, 28, 29, 30, 31, 32, 33, 34, 35, 36, 37, 38, 39, 40, 41, 42, 43, 44, 45, 46, 47, 48, 49, 50, 51, 52, 53, 54, 55, 
distro:
10981, 13838, 13863, 13674, 13717, 13671, 13714, 11013, 10223, 12886, 12911, 12729, 12767, 12728, 12765, 10246, 9732, 12271, 12301, 12115, 12151, 12109, 12150, 9743, 9051, 11322, 11343, 11317, 11339, 11306, 11337, 9077, 9298, 11632, 11655, 11474, 11510, 11469, 11514, 9232, 8808, 11002, 11032, 10994, 11030, 10992, 11023, 8831, 8804, 11012, 11028, 10995, 11020, 10977, 11017, 8826, 
gpgpu_n_tot_thrd_icount = 485326208
gpgpu_n_tot_w_icount = 15166444
gpgpu_n_stall_shd_mem = 390377
gpgpu_n_mem_read_local = 0
gpgpu_n_mem_write_local = 0
gpgpu_n_mem_read_global = 346456
gpgpu_n_mem_write_global = 109568
gpgpu_n_mem_texture = 0
gpgpu_n_mem_const = 56
gpgpu_n_load_insn  = 3720992
gpgpu_n_store_insn = 1048576
gpgpu_n_shmem_insn = 24940324
gpgpu_n_tex_insn = 0
gpgpu_n_const_mem_insn = 0
gpgpu_n_param_mem_insn = 24613888
gpgpu_n_shmem_bkconflict = 0
gpgpu_n_cache_bkconflict = 0
gpgpu_n_intrawarp_mshr_merge = 0
gpgpu_n_cmem_portconflict = 4886
gpgpu_stall_shd_mem[c_mem][bk_conf] = 4886
gpgpu_stall_shd_mem[c_mem][mshr_rc] = 0
gpgpu_stall_shd_mem[c_mem][icnt_rc] = 0
gpgpu_stall_shd_mem[c_mem][data_port_stall] = 0
gpgpu_stall_shd_mem[t_mem][mshr_rc] = 0
gpgpu_stall_shd_mem[t_mem][icnt_rc] = 0
gpgpu_stall_shd_mem[t_mem][data_port_stall] = 0
gpgpu_stall_shd_mem[s_mem][bk_conf] = 0
gpgpu_stall_shd_mem[gl_mem][bk_conf] = 0
gpgpu_stall_shd_mem[gl_mem][coal_stall] = 324471
gpgpu_stall_shd_mem[gl_mem][data_port_stall] = 0
gpgpu_stall_shd_mem[g_mem_ld][mshr_rc] = 0
gpgpu_stall_shd_mem[g_mem_ld][icnt_rc] = 61020
gpgpu_stall_shd_mem[g_mem_ld][wb_icnt_rc] = 0
gpgpu_stall_shd_mem[g_mem_ld][wb_rsrv_fail] = 0
gpgpu_stall_shd_mem[g_mem_st][mshr_rc] = 0
gpgpu_stall_shd_mem[g_mem_st][icnt_rc] = 0
gpgpu_stall_shd_mem[g_mem_st][wb_icnt_rc] = 0
gpgpu_stall_shd_mem[g_mem_st][wb_rsrv_fail] = 0
gpgpu_stall_shd_mem[l_mem_ld][mshr_rc] = 0
gpgpu_stall_shd_mem[l_mem_ld][icnt_rc] = 0
gpgpu_stall_shd_mem[l_mem_ld][wb_icnt_rc] = 0
gpgpu_stall_shd_mem[l_mem_ld][wb_rsrv_fail] = 0
gpgpu_stall_shd_mem[l_mem_st][mshr_rc] = 0
gpgpu_stall_shd_mem[l_mem_st][icnt_rc] = 0
gpgpu_stall_shd_mem[l_mem_ld][wb_icnt_rc] = 0
gpgpu_stall_shd_mem[l_mem_ld][wb_rsrv_fail] = 0
gpu_reg_bank_conflict_stalls = 0
Warp Occupancy Distribution:
Stall:537359	W0_Idle:71598572	W0_Scoreboard:45658799	W1:0	W2:0	W3:0	W4:0	W5:8500	W6:0	W7:0	W8:28160	W9:0	W10:25600	W11:0	W12:12958	W13:8500	W14:714000	W15:0	W16:0	W17:0	W18:0	W19:0	W20:0	W21:0	W22:0	W23:0	W24:3517792	W25:0	W26:25600	W27:0	W28:3287550	W29:0	W30:0	W31:0	W32:7537784
traffic_breakdown_coretomem[CONST_ACC_R] = 448 {8:56,}
traffic_breakdown_coretomem[GLOBAL_ACC_R] = 2771648 {8:346456,}
traffic_breakdown_coretomem[GLOBAL_ACC_W] = 7856128 {40:44032,72:44032,136:21504,}
traffic_breakdown_coretomem[INST_ACC_R] = 2912 {8:364,}
traffic_breakdown_memtocore[CONST_ACC_R] = 4032 {72:56,}
traffic_breakdown_memtocore[GLOBAL_ACC_R] = 28785856 {40:114576,72:114576,136:117304,}
traffic_breakdown_memtocore[GLOBAL_ACC_W] = 876544 {8:109568,}
traffic_breakdown_memtocore[INST_ACC_R] = 49504 {136:364,}
maxmrqlatency = 540 
maxdqlatency = 0 
maxmflatency = 243881 
averagemflatency = 6018 
max_icnt2mem_latency = 243557 
max_icnt2sh_latency = 2552503 
mrq_lat_table:107929 	6423 	5977 	13803 	19626 	16557 	8839 	8745 	8276 	9 	0 	0 	0 	0 	0 	0 	0 	0 	0 	0 	0 	0 	0 	0 	0 	0 	0 	0 	0 	0 	0 	0 	
dq_lat_table:0 	0 	0 	0 	0 	0 	0 	0 	0 	0 	0 	0 	0 	0 	0 	0 	0 	0 	0 	0 	0 	0 	0 	0 	0 	0 	0 	0 	0 	0 	0 	0 	
mf_lat_table:0 	0 	0 	0 	0 	0 	0 	252876 	139442 	2826 	314 	3015 	3161 	6215 	13363 	27419 	7402 	47 	0 	0 	0 	0 	0 	0 	0 	0 	0 	0 	0 	0 	0 	0 	
icnt2mem_lat_table:0 	0 	222802 	40229 	5027 	2321 	112594 	11253 	1269 	40 	483 	2833 	3153 	6339 	13637 	27019 	7398 	47 	0 	0 	0 	0 	0 	0 	
icnt2sh_lat_table:0 	0 	98083 	157004 	85162 	6201 	62 	0 	0 	0 	0 	0 	0 	0 	0 	0 	0 	0 	12840 	14659 	63863 	18206 	0 	0 	
mf_lat_pw_table:0 	0 	0 	0 	0 	0 	0 	322 	89 	3 	4 	22 	23 	40 	82 	139 	67 	0 	0 	0 	0 	0 	0 	0 	0 	0 	0 	0 	0 	0 	0 	0 	
maximum concurrent accesses to same row:
dram[0]:        69        70        69        70        69        70        69        70        69        70        69        70        68        66        69        70 
dram[1]:        69        70        69        70        69        70        69        70        69        70        69        70        68        65        69        70 
dram[2]:        69        70        69        70        69        70        69        70        69        70        69        70        66        66        69        70 
dram[3]:        69        70        69        70        69        70        69        70        69        70        69        70        64        66        69        70 
dram[4]:        69        70        69        70        69        70        69        70        69        70        69        70        66        65        69        70 
dram[5]:        69        70        69        70        69        70        69        70        69        70        69        70        67        69        69        70 
dram[6]:        69        70        69        70        69        70        69        70        69        70        69        70        69        66        69        70 
dram[7]:        69        70        69        70        69        70        69        70        69        70        69        70        66        66        69        70 
dram[8]:        69        70        69        70        69        70        69        70        69        70        69        70        65        66        69        70 
dram[9]:        69        70        69        70        69        70        69        70        69        70        69        70        64        66        69        70 
dram[10]:        69        70        69        70        69        70        69        70        69        70        69        70        67        66        69        70 
maximum service time to same row:
dram[0]:    259027    259104    269789    270013    256635    256501    383132    382868    377430    377334    376792    248610    254732    254730    253451    253530 
dram[1]:    259165    259484    269978    269976    296875    296669    382867    382868    377548    377494    248539    248913    254718    254714    253460    253304 
dram[2]:    259128    259478    269799    269764    296005    296014    382809    382836    377556    377419    248618    248343    254726    254725    252889    252533 
dram[3]:    259171    259143    269761    269689    256386    256693    382830    382778    377310    377428    248263    248208    254601    254637    253443    253455 
dram[4]:    259383    259619    269627    269967    256542    256699    383038    382870    377542    377553    248148    248217    254669    254654    253457    253541 
dram[5]:    259027    259103    269875    269873    256636    256483    382865    382844    377452    377398    248157    251804    254732    254731    253463    253521 
dram[6]:    259198    259520    269794    269794    296873    296545    383231    382882    377430    377400    376319    245760    254721    254718    253457    253305 
dram[7]:    257646    259492    269758    269650    296673    296669    382790    382849    377446    377268    245675    245665    254725    254727    252939    252512 
dram[8]:    259159    259186    269628    269556    256532    256576    382863    382787    377329    377370    245566    245576    254600    254624    253433    253499 
dram[9]:    259365    259470    269629    269972    256425    256563    383040    382863    377284    377301    245579    245743    254549    254648    253456    253536 
dram[10]:    264397    263758    269869    269870    256823    256448    382836    382872    377262    377270    245712    249367    254675    254664    253472    253529 
average row accesses per activate:
dram[0]: 12.395349 12.090909 11.602151 10.939394 10.617647 10.910000 10.513762 10.785047 11.434343 11.330000 10.714286 10.071428 11.414142 11.274509 14.423077 12.988505 
dram[1]: 12.761905 11.888889 12.044944 12.367816 12.066667 11.648936 11.575758 10.351352 11.628866 11.978948 11.019608 10.518518 11.137255 11.915790 15.493151 13.914634 
dram[2]: 12.963414 12.430233 12.750000 12.250000 11.717391 11.670213 11.356436 12.736263 11.363636 11.649485 12.010638 11.196078 12.655556 12.577778 15.971831 14.818182 
dram[3]: 14.722222 14.391891 12.821428 13.425000 12.569767 12.188889 12.626373 13.372093 11.947369 13.045977 12.707865 12.117022 12.633333 12.633333 14.341772 15.465754 
dram[4]: 12.193182 11.943820 11.446809 11.478724 11.489362 13.119047 12.786517 12.887640 11.701031 11.773196 11.320000 11.107843 12.685393 12.711111 16.200001 14.538462 
dram[5]: 11.252631 11.637362 10.820000 10.760000 10.169811 10.339622 11.257425 10.738317 11.551021 11.117647 10.162162 10.688680 12.139785 10.820755 12.417583 12.439561 
dram[6]: 12.022472 10.938145 13.271605 12.670588 11.132653  9.750000 11.077670 11.009523 11.280000 12.042553 11.894737 10.679245 11.217822 11.714286 14.662337 13.376471 
dram[7]: 12.430233 12.963856 13.756411 13.134147 10.637255 11.204082 12.571428 13.011236 11.567010 11.494949 12.010638 11.430000 11.680412 12.182796 14.512820 14.250000 
dram[8]: 12.963414 12.181818 12.714286 13.794871 11.343750 11.224490 12.910112 13.056818 11.659794 11.434343 13.116279 12.413043 11.561225 12.863636 14.564102 14.225000 
dram[9]: 13.036586 13.287500 11.177083 10.607843 10.656863 11.265306 12.604396 13.795180 11.906250 12.413043 12.075269 11.622449 11.781250 12.965909 14.907895 13.865853 
dram[10]: 11.505377 11.910112 10.790000 10.860000 10.820000 11.060000 12.538462 11.326733 11.217822 11.038835 11.434343 11.247525 12.544444 12.402174 13.116279 12.752809 
average row locality = 196184/16294 = 12.040260
number of total memory accesses made:
dram[0]:         0         0         0         0         0         0         0         0         0         0         0         0         0         0         0         0 
dram[1]:         0         0         0         0         0         0         0         0         0         0         0         0         0         0         0         0 
dram[2]:         0         0         0         0         0         0         0         0         0         0         0         0         0         0         0         0 
dram[3]:         0         0         0         0         0         0         0         0         0         0         0         0         0         0         0         0 
dram[4]:         0         0         0         0         0         0         0         0         0         0         0         0         0         0         0         0 
dram[5]:         0         0         0         0         0         0         0         0         0         0         0         0         0         0         0         0 
dram[6]:         0         0         0         0         0         0         0         0         0         0         0         0         0         0         0         0 
dram[7]:         0         0         0         0         0         0         0         0         0         0         0         0         0         0         0         0 
dram[8]:         0         0         0         0         0         0         0         0         0         0         0         0         0         0         0         0 
dram[9]:         0         0         0         0         0         0         0         0         0         0         0         0         0         0         0         0 
dram[10]:         0         0         0         0         0         0         0         0         0         0         0         0         0         0         0         0 
total accesses: 0
min_bank_accesses = 0!
min_chip_accesses = 0!
number of total read accesses:
dram[0]:       561       560       560       560       560       560       560       560       560       560       548       548       560       560       560       560 
dram[1]:       560       560       560       560       560       560       560       560       560       560       549       549       560       560       560       560 
dram[2]:       560       560       560       560       560       560       560       560       560       560       549       549       560       560       560       560 
dram[3]:       560       560       560       560       560       560       560       560       560       560       549       549       560       560       560       560 
dram[4]:       560       560       560       560       560       560       560       560       560       560       549       549       560       560       561       561 
dram[5]:       560       560       560       560       560       560       560       560       560       560       548       548       560       560       561       561 
dram[6]:       560       560       560       560       560       560       560       560       560       560       548       548       560       560       561       561 
dram[7]:       560       560       560       560       560       560       560       560       560       560       548       548       560       560       561       561 
dram[8]:       560       560       560       560       560       560       560       560       560       560       548       548       560       560       561       561 
dram[9]:       560       560       560       560       560       560       560       560       560       560       548       548       560       560       561       561 
dram[10]:       560       560       560       560       560       560       560       560       560       560       548       548       560       560       561       560 
total reads: 98318
bank skew: 561/548 = 1.02
chip skew: 8940/8937 = 1.00
number of total write accesses:
dram[0]:       505       504       519       523       523       531       586       594       572       573       577       580       570       590       565       570 
dram[1]:       512       510       512       516       526       535       586       589       568       578       575       587       576       572       571       581 
dram[2]:       503       509       511       518       518       537       587       599       565       570       580       593       579       572       574       581 
dram[3]:       500       505       517       514       521       537       589       590       575       575       582       590       577       577       573       569 
dram[4]:       513       503       516       519       520       542       578       587       575       582       583       584       569       584       573       573 
dram[5]:       509       499       522       516       518       536       577       589       572       574       580       585       569       587       569       571 
dram[6]:       510       501       515       517       531       532       581       596       568       572       582       584       573       588       568       576 
dram[7]:       509       516       513       517       525       538       584       598       562       578       581       595       573       573       571       579 
dram[8]:       503       512       508       516       529       540       589       589       571       572       580       594       573       572       575       577 
dram[9]:       509       503       513       522       527       544       587       585       583       582       575       591       571       581       572       576 
dram[10]:       510       500       519       526       522       546       581       584       573       577       584       588       569       581       567       575 
total reads: 97866
bank skew: 599/499 = 1.20
chip skew: 8921/8873 = 1.01
average mf latency per bank:
dram[0]:      12343     12338     12170     12169     15755     15322     14951     15143     10897     10863     12535     12163     17143     17155     15582     15167
dram[1]:      12511     12566     12214     12097     15770     15664     15390     15545     10886     10704     12680     12300     17249     17530     15620     15216
dram[2]:      12813     12845     12044     11873     15699     15559     15524     15550     10703     10469     12720     12575     17584     17622     15543     15299
dram[3]:      13095     12901     11610     11613     15861     15324     15292     15073     10686     10530     12859     12767     17290     17377     15717     15171
dram[4]:      12904     12551     11406     11350     16360     16372     14948     14676     10813     10570     12670     12289     17448     17046     15359     15072
dram[5]:      13104     13269     11284     11545     16551     16081     14507     14609     11151     11162     11970     11667     17583     17545     14716     14404
dram[6]:      12933     12970     11804     11696     16462     16275     14798     14886     11174     10928     13151     13230     17531     17743     15166     14819
dram[7]:      13055     13030     11728     11644     16461     16527     15640     15811     10740     10338     13571     13237     18083     17989     15211     14945
dram[8]:      13384     13163     11609     11642     16378     15998     15666     15558     10294     10147     13651     13339     17749     17727     15255     14950
dram[9]:      12971     12609     11631     11526     15996     15681     14909     14679     10416     10225     13847     13567     17547     17377     15839     15457
dram[10]:      12251     12051     11573     11700     16080     15881     14642     14851     10683     10602     13686     13347     17396     16919     15572     15127
maximum mf latency per bank:
dram[0]:     129237    129100     91100     90442    124157    124372    123758    123719    123046    122891    130124    130129    129822    129838    243814    243834
dram[1]:     129151    129065     85941     85910    124378    124504    123748    123755    122986    123019    130123    130135    129950    130093    243800    243829
dram[2]:     129243    129071     85908     85245    124474    124367    123755    123764    123015    122995    130125    130132    129994    130152    243808    243831
dram[3]:     129066    128866     62995     63011    124353    124372    123760    123737    123069    123072    130133    130135    129945    130069    243807    243881
dram[4]:     128979    128986     88668     88652    124313    124414    123744    123755    123051    123004    130130    130134    129849    129903    243809    129597
dram[5]:     129183    129084     88540     88511    124214    124473    123562    123729    123015    122923    130127    130124    129833    129854    129626    129729
dram[6]:     129205    129141     88497     87839    124374    124506    123731    123756    123043    123003    130136    130152    129943    130021    129802    129816
dram[7]:     129252    129083     72881     72238    124405    124448    123783    124042    122982    123015    130130    130133    129945    130040    129722    129672
dram[8]:     129045    128868     63293     63177    124533    124349    123813    123828    123011    123071    130125    130163    129991    130071    129763    129718
dram[9]:     128962    128995     91273     91250    124404    124306    123724    123734    123050    122978    130136    130138    129810    129926    243764    243774
dram[10]:     123660    123637     91143     91115    124194    124305    123741    123799    123024    122964    130139    130142    129853    129877    243797    243810
Memory Partition 0: 
Cache L2_bank_000:
MSHR contents

Cache L2_bank_001:
MSHR contents

In Dram Latency Queue (total = 0): 
DRAM[0]: 16 bks, busW=4 BL=8 CL=12, tRRD=2 tCCD=6, tRCD=12 tRAS=28 tRP=12 tRC=40
n_cmd=4327125 n_nop=4267741 n_act=1567 n_pre=1551 n_req=17819 n_rd=35748 n_write=20518 bw_util=0.02601
n_activity=195583 dram_eff=0.5754
bk0: 2244a 4307574i bk1: 2240a 4305720i bk2: 2240a 4306328i bk3: 2240a 4305080i bk4: 2240a 4306859i bk5: 2240a 4304544i bk6: 2240a 4304567i bk7: 2240a 4303602i bk8: 2240a 4305863i bk9: 2240a 4303513i bk10: 2192a 4305187i bk11: 2192a 4303958i bk12: 2240a 4305995i bk13: 2240a 4304389i bk14: 2240a 4306271i bk15: 2240a 4304716i 
dram_util_bins: 0 0 0 0 0 0 0 0 0 0
dram_eff_bins: 0 0 0 0 0 0 0 0 0 0
mrqq: max=64 avg=0.261007
Memory Partition 1: 
Cache L2_bank_002:
MSHR contents

Cache L2_bank_003:
MSHR contents

In Dram Latency Queue (total = 0): 
DRAM[1]: 16 bks, busW=4 BL=8 CL=12, tRRD=2 tCCD=6, tRCD=12 tRAS=28 tRP=12 tRC=40
n_cmd=4327125 n_nop=4267908 n_act=1498 n_pre=1482 n_req=17832 n_rd=35752 n_write=20485 bw_util=0.02599
n_activity=194964 dram_eff=0.5769
bk0: 2240a 4307507i bk1: 2240a 4305547i bk2: 2240a 4307434i bk3: 2240a 4305886i bk4: 2240a 4306821i bk5: 2240a 4305562i bk6: 2240a 4305388i bk7: 2240a 4304136i bk8: 2240a 4305417i bk9: 2240a 4303774i bk10: 2196a 4305513i bk11: 2196a 4303976i bk12: 2240a 4306038i bk13: 2240a 4304652i bk14: 2240a 4306133i bk15: 2240a 4304158i 
dram_util_bins: 0 0 0 0 0 0 0 0 0 0
dram_eff_bins: 0 0 0 0 0 0 0 0 0 0
mrqq: max=64 avg=0.255613
Memory Partition 2: 
Cache L2_bank_004:
MSHR contents

Cache L2_bank_005:
MSHR contents

In Dram Latency Queue (total = 0): 
DRAM[2]: 16 bks, busW=4 BL=8 CL=12, tRRD=2 tCCD=6, tRCD=12 tRAS=28 tRP=12 tRC=40
n_cmd=4327125 n_nop=4267966 n_act=1438 n_pre=1422 n_req=17834 n_rd=35752 n_write=20547 bw_util=0.02602
n_activity=194239 dram_eff=0.5797
bk0: 2240a 4308201i bk1: 2240a 4305627i bk2: 2240a 4307255i bk3: 2240a 4305758i bk4: 2240a 4306340i bk5: 2240a 4305752i bk6: 2240a 4305669i bk7: 2240a 4304797i bk8: 2240a 4306076i bk9: 2240a 4305159i bk10: 2196a 4305658i bk11: 2196a 4304549i bk12: 2240a 4305401i bk13: 2240a 4303732i bk14: 2240a 4305577i bk15: 2240a 4305179i 
dram_util_bins: 0 0 0 0 0 0 0 0 0 0
dram_eff_bins: 0 0 0 0 0 0 0 0 0 0
mrqq: max=64 avg=0.253759
Memory Partition 3: 
Cache L2_bank_006:
MSHR contents

Cache L2_bank_007:
MSHR contents

In Dram Latency Queue (total = 0): 
DRAM[3]: 16 bks, busW=4 BL=8 CL=12, tRRD=2 tCCD=6, tRCD=12 tRAS=28 tRP=12 tRC=40
n_cmd=4327125 n_nop=4268115 n_act=1360 n_pre=1344 n_req=17829 n_rd=35752 n_write=20554 bw_util=0.02602
n_activity=195137 dram_eff=0.5771
bk0: 2240a 4308276i bk1: 2240a 4306726i bk2: 2240a 4307341i bk3: 2240a 4306593i bk4: 2240a 4307403i bk5: 2240a 4306408i bk6: 2240a 4305411i bk7: 2240a 4304636i bk8: 2240a 4305682i bk9: 2240a 4304425i bk10: 2196a 4305948i bk11: 2196a 4305050i bk12: 2240a 4305671i bk13: 2240a 4304413i bk14: 2240a 4306329i bk15: 2240a 4304982i 
dram_util_bins: 0 0 0 0 0 0 0 0 0 0
dram_eff_bins: 0 0 0 0 0 0 0 0 0 0
mrqq: max=64 avg=0.254154
Memory Partition 4: 
Cache L2_bank_008:
MSHR contents

Cache L2_bank_009:
MSHR contents

In Dram Latency Queue (total = 0): 
DRAM[4]: 16 bks, busW=4 BL=8 CL=12, tRRD=2 tCCD=6, tRCD=12 tRAS=28 tRP=12 tRC=40
n_cmd=4327125 n_nop=4267941 n_act=1444 n_pre=1428 n_req=17841 n_rd=35760 n_write=20552 bw_util=0.02603
n_activity=194727 dram_eff=0.5784
bk0: 2240a 4306719i bk1: 2240a 4305383i bk2: 2240a 4307467i bk3: 2240a 4306156i bk4: 2240a 4307397i bk5: 2240a 4305521i bk6: 2240a 4306191i bk7: 2240a 4304212i bk8: 2240a 4305562i bk9: 2240a 4304771i bk10: 2196a 4304937i bk11: 2196a 4303625i bk12: 2240a 4306633i bk13: 2240a 4305281i bk14: 2244a 4306467i bk15: 2244a 4304742i 
dram_util_bins: 0 0 0 0 0 0 0 0 0 0
dram_eff_bins: 0 0 0 0 0 0 0 0 0 0
mrqq: max=64 avg=0.255975
Memory Partition 5: 
Cache L2_bank_010:
MSHR contents

Cache L2_bank_011:
MSHR contents

In Dram Latency Queue (total = 0): 
DRAM[5]: 16 bks, busW=4 BL=8 CL=12, tRRD=2 tCCD=6, tRCD=12 tRAS=28 tRP=12 tRC=40
n_cmd=4327125 n_nop=4267651 n_act=1604 n_pre=1588 n_req=17811 n_rd=35752 n_write=20530 bw_util=0.02601
n_activity=195856 dram_eff=0.5747
bk0: 2240a 4306581i bk1: 2240a 4306073i bk2: 2240a 4306968i bk3: 2240a 4305813i bk4: 2240a 4306251i bk5: 2240a 4304519i bk6: 2240a 4305332i bk7: 2240a 4304081i bk8: 2240a 4305614i bk9: 2240a 4303837i bk10: 2192a 4305460i bk11: 2192a 4304642i bk12: 2240a 4306204i bk13: 2240a 4303586i bk14: 2244a 4305526i bk15: 2244a 4304450i 
dram_util_bins: 0 0 0 0 0 0 0 0 0 0
dram_eff_bins: 0 0 0 0 0 0 0 0 0 0
mrqq: max=64 avg=0.25299
Memory Partition 6: 
Cache L2_bank_012:
MSHR contents

Cache L2_bank_013:
MSHR contents

In Dram Latency Queue (total = 0): 
DRAM[6]: 16 bks, busW=4 BL=8 CL=12, tRRD=2 tCCD=6, tRCD=12 tRAS=28 tRP=12 tRC=40
n_cmd=4327125 n_nop=4267843 n_act=1526 n_pre=1510 n_req=17832 n_rd=35752 n_write=20494 bw_util=0.026
n_activity=194431 dram_eff=0.5786
bk0: 2240a 4306990i bk1: 2240a 4306073i bk2: 2240a 4307435i bk3: 2240a 4306246i bk4: 2240a 4306187i bk5: 2240a 4304071i bk6: 2240a 4305087i bk7: 2240a 4303645i bk8: 2240a 4305632i bk9: 2240a 4304127i bk10: 2192a 4305716i bk11: 2192a 4304767i bk12: 2240a 4305275i bk13: 2240a 4304113i bk14: 2244a 4305778i bk15: 2244a 4304448i 
dram_util_bins: 0 0 0 0 0 0 0 0 0 0
dram_eff_bins: 0 0 0 0 0 0 0 0 0 0
mrqq: max=64 avg=0.254883
Memory Partition 7: 
Cache L2_bank_014:
MSHR contents

Cache L2_bank_015:
MSHR contents

In Dram Latency Queue (total = 0): 
DRAM[7]: 16 bks, busW=4 BL=8 CL=12, tRRD=2 tCCD=6, tRCD=12 tRAS=28 tRP=12 tRC=40
n_cmd=4327125 n_nop=4267974 n_act=1447 n_pre=1431 n_req=17850 n_rd=35752 n_write=20521 bw_util=0.02601
n_activity=194991 dram_eff=0.5772
bk0: 2240a 4307782i bk1: 2240a 4305728i bk2: 2240a 4307182i bk3: 2240a 4305738i bk4: 2240a 4306203i bk5: 2240a 4305054i bk6: 2240a 4305526i bk7: 2240a 4304841i bk8: 2240a 4305736i bk9: 2240a 4304551i bk10: 2192a 4305870i bk11: 2192a 4304762i bk12: 2240a 4306069i bk13: 2240a 4304260i bk14: 2244a 4306088i bk15: 2244a 4304714i 
dram_util_bins: 0 0 0 0 0 0 0 0 0 0
dram_eff_bins: 0 0 0 0 0 0 0 0 0 0
mrqq: max=64 avg=0.256257
Memory Partition 8: 
Cache L2_bank_016:
MSHR contents

Cache L2_bank_017:
MSHR contents

In Dram Latency Queue (total = 0): 
DRAM[8]: 16 bks, busW=4 BL=8 CL=12, tRRD=2 tCCD=6, tRCD=12 tRAS=28 tRP=12 tRC=40
n_cmd=4327125 n_nop=4267967 n_act=1421 n_pre=1405 n_req=17838 n_rd=35752 n_write=20580 bw_util=0.02604
n_activity=195204 dram_eff=0.5772
bk0: 2240a 4308153i bk1: 2240a 4306196i bk2: 2240a 4307480i bk3: 2240a 4306970i bk4: 2240a 4307432i bk5: 2240a 4305481i bk6: 2240a 4305416i bk7: 2240a 4305013i bk8: 2240a 4305281i bk9: 2240a 4303944i bk10: 2192a 4306006i bk11: 2192a 4304655i bk12: 2240a 4305451i bk13: 2240a 4305309i bk14: 2244a 4305754i bk15: 2244a 4304788i 
dram_util_bins: 0 0 0 0 0 0 0 0 0 0
dram_eff_bins: 0 0 0 0 0 0 0 0 0 0
mrqq: max=64 avg=0.253855
Memory Partition 9: 
Cache L2_bank_018:
MSHR contents

Cache L2_bank_019:
MSHR contents

In Dram Latency Queue (total = 0): 
DRAM[9]: 16 bks, busW=4 BL=8 CL=12, tRRD=2 tCCD=6, tRCD=12 tRAS=28 tRP=12 tRC=40
n_cmd=4327125 n_nop=4267885 n_act=1455 n_pre=1439 n_req=17859 n_rd=35752 n_write=20594 bw_util=0.02604
n_activity=195254 dram_eff=0.5772
bk0: 2240a 4307494i bk1: 2240a 4307027i bk2: 2240a 4307159i bk3: 2240a 4305831i bk4: 2240a 4306276i bk5: 2240a 4304954i bk6: 2240a 4305482i bk7: 2240a 4305264i bk8: 2240a 4305980i bk9: 2240a 4305356i bk10: 2192a 4306232i bk11: 2192a 4304203i bk12: 2240a 4306099i bk13: 2240a 4305181i bk14: 2244a 4305966i bk15: 2244a 4304552i 
dram_util_bins: 0 0 0 0 0 0 0 0 0 0
dram_eff_bins: 0 0 0 0 0 0 0 0 0 0
mrqq: max=64 avg=0.255488
Memory Partition 10: 
Cache L2_bank_020:
MSHR contents

Cache L2_bank_021:
MSHR contents

In Dram Latency Queue (total = 0): 
DRAM[10]: 16 bks, busW=4 BL=8 CL=12, tRRD=2 tCCD=6, tRCD=12 tRAS=28 tRP=12 tRC=40
n_cmd=4327125 n_nop=4267742 n_act=1535 n_pre=1519 n_req=17839 n_rd=35748 n_write=20581 bw_util=0.02604
n_activity=195601 dram_eff=0.576
bk0: 2240a 4306630i bk1: 2240a 4305267i bk2: 2240a 4306730i bk3: 2240a 4304812i bk4: 2240a 4306632i bk5: 2240a 4304332i bk6: 2240a 4305938i bk7: 2240a 4303904i bk8: 2240a 4305877i bk9: 2240a 4303952i bk10: 2192a 4305450i bk11: 2192a 4304838i bk12: 2240a 4306250i bk13: 2240a 4304584i bk14: 2244a 4305395i bk15: 2240a 4304405i 
dram_util_bins: 0 0 0 0 0 0 0 0 0 0
dram_eff_bins: 0 0 0 0 0 0 0 0 0 0
mrqq: max=64 avg=0.258269

========= L2 cache stats =========
L2_cache_bank[0]: Access = 20620, Miss = 4469, Miss_rate = 0.217, Pending_hits = 7963, Reservation_fails = 5
L2_cache_bank[1]: Access = 20905, Miss = 4468, Miss_rate = 0.214, Pending_hits = 8165, Reservation_fails = 8
L2_cache_bank[2]: Access = 20570, Miss = 4469, Miss_rate = 0.217, Pending_hits = 7989, Reservation_fails = 7
L2_cache_bank[3]: Access = 20910, Miss = 4469, Miss_rate = 0.214, Pending_hits = 8181, Reservation_fails = 3
L2_cache_bank[4]: Access = 20562, Miss = 4469, Miss_rate = 0.217, Pending_hits = 7899, Reservation_fails = 7
L2_cache_bank[5]: Access = 20901, Miss = 4469, Miss_rate = 0.214, Pending_hits = 8180, Reservation_fails = 7
L2_cache_bank[6]: Access = 20556, Miss = 4469, Miss_rate = 0.217, Pending_hits = 7999, Reservation_fails = 9
L2_cache_bank[7]: Access = 20897, Miss = 4469, Miss_rate = 0.214, Pending_hits = 8118, Reservation_fails = 8
L2_cache_bank[8]: Access = 20582, Miss = 4470, Miss_rate = 0.217, Pending_hits = 7955, Reservation_fails = 12
L2_cache_bank[9]: Access = 20926, Miss = 4470, Miss_rate = 0.214, Pending_hits = 8130, Reservation_fails = 3
L2_cache_bank[10]: Access = 20583, Miss = 4469, Miss_rate = 0.217, Pending_hits = 7961, Reservation_fails = 8
L2_cache_bank[11]: Access = 20925, Miss = 4469, Miss_rate = 0.214, Pending_hits = 8182, Reservation_fails = 11
L2_cache_bank[12]: Access = 20590, Miss = 4469, Miss_rate = 0.217, Pending_hits = 8013, Reservation_fails = 8
L2_cache_bank[13]: Access = 20929, Miss = 4469, Miss_rate = 0.214, Pending_hits = 8221, Reservation_fails = 9
L2_cache_bank[14]: Access = 20586, Miss = 4469, Miss_rate = 0.217, Pending_hits = 7931, Reservation_fails = 11
L2_cache_bank[15]: Access = 20925, Miss = 4469, Miss_rate = 0.214, Pending_hits = 8169, Reservation_fails = 9
L2_cache_bank[16]: Access = 20580, Miss = 4469, Miss_rate = 0.217, Pending_hits = 7934, Reservation_fails = 6
L2_cache_bank[17]: Access = 20920, Miss = 4469, Miss_rate = 0.214, Pending_hits = 8243, Reservation_fails = 13
L2_cache_bank[18]: Access = 20578, Miss = 4469, Miss_rate = 0.217, Pending_hits = 7984, Reservation_fails = 13
L2_cache_bank[19]: Access = 20921, Miss = 4469, Miss_rate = 0.214, Pending_hits = 8115, Reservation_fails = 7
L2_cache_bank[20]: Access = 20581, Miss = 4469, Miss_rate = 0.217, Pending_hits = 7983, Reservation_fails = 6
L2_cache_bank[21]: Access = 20897, Miss = 4468, Miss_rate = 0.214, Pending_hits = 8117, Reservation_fails = 8
L2_total_cache_accesses = 456444
L2_total_cache_misses = 98318
L2_total_cache_miss_rate = 0.2154
L2_total_cache_pending_hits = 177432
L2_total_cache_reservation_fails = 178
L2_total_cache_breakdown:
	L2_cache_stats_breakdown[GLOBAL_ACC_R][HIT] = 155213
	L2_cache_stats_breakdown[GLOBAL_ACC_R][HIT_RESERVED] = 125707
	L2_cache_stats_breakdown[GLOBAL_ACC_R][MISS] = 65536
	L2_cache_stats_breakdown[GLOBAL_ACC_R][RESERVATION_FAIL] = 0
	L2_cache_stats_breakdown[LOCAL_ACC_R][HIT] = 0
	L2_cache_stats_breakdown[LOCAL_ACC_R][HIT_RESERVED] = 0
	L2_cache_stats_breakdown[LOCAL_ACC_R][MISS] = 0
	L2_cache_stats_breakdown[LOCAL_ACC_R][RESERVATION_FAIL] = 0
	L2_cache_stats_breakdown[CONST_ACC_R][HIT] = 28
	L2_cache_stats_breakdown[CONST_ACC_R][HIT_RESERVED] = 27
	L2_cache_stats_breakdown[CONST_ACC_R][MISS] = 1
	L2_cache_stats_breakdown[CONST_ACC_R][RESERVATION_FAIL] = 0
	L2_cache_stats_breakdown[TEXTURE_ACC_R][HIT] = 0
	L2_cache_stats_breakdown[TEXTURE_ACC_R][HIT_RESERVED] = 0
	L2_cache_stats_breakdown[TEXTURE_ACC_R][MISS] = 0
	L2_cache_stats_breakdown[TEXTURE_ACC_R][RESERVATION_FAIL] = 0
	L2_cache_stats_breakdown[GLOBAL_ACC_W][HIT] = 25443
	L2_cache_stats_breakdown[GLOBAL_ACC_W][HIT_RESERVED] = 51357
	L2_cache_stats_breakdown[GLOBAL_ACC_W][MISS] = 32768
	L2_cache_stats_breakdown[GLOBAL_ACC_W][RESERVATION_FAIL] = 178
	L2_cache_stats_breakdown[LOCAL_ACC_W][HIT] = 0
	L2_cache_stats_breakdown[LOCAL_ACC_W][HIT_RESERVED] = 0
	L2_cache_stats_breakdown[LOCAL_ACC_W][MISS] = 0
	L2_cache_stats_breakdown[LOCAL_ACC_W][RESERVATION_FAIL] = 0
	L2_cache_stats_breakdown[L1_WRBK_ACC][HIT] = 0
	L2_cache_stats_breakdown[L1_WRBK_ACC][HIT_RESERVED] = 0
	L2_cache_stats_breakdown[L1_WRBK_ACC][MISS] = 0
	L2_cache_stats_breakdown[L1_WRBK_ACC][RESERVATION_FAIL] = 0
	L2_cache_stats_breakdown[L2_WRBK_ACC][HIT] = 0
	L2_cache_stats_breakdown[L2_WRBK_ACC][HIT_RESERVED] = 0
	L2_cache_stats_breakdown[L2_WRBK_ACC][MISS] = 0
	L2_cache_stats_breakdown[L2_WRBK_ACC][RESERVATION_FAIL] = 0
	L2_cache_stats_breakdown[INST_ACC_R][HIT] = 10
	L2_cache_stats_breakdown[INST_ACC_R][HIT_RESERVED] = 341
	L2_cache_stats_breakdown[INST_ACC_R][MISS] = 13
	L2_cache_stats_breakdown[INST_ACC_R][RESERVATION_FAIL] = 0
	L2_cache_stats_breakdown[L1_WR_ALLOC_R][HIT] = 0
	L2_cache_stats_breakdown[L1_WR_ALLOC_R][HIT_RESERVED] = 0
	L2_cache_stats_breakdown[L1_WR_ALLOC_R][MISS] = 0
	L2_cache_stats_breakdown[L1_WR_ALLOC_R][RESERVATION_FAIL] = 0
	L2_cache_stats_breakdown[L2_WR_ALLOC_R][HIT] = 0
	L2_cache_stats_breakdown[L2_WR_ALLOC_R][HIT_RESERVED] = 0
	L2_cache_stats_breakdown[L2_WR_ALLOC_R][MISS] = 0
	L2_cache_stats_breakdown[L2_WR_ALLOC_R][RESERVATION_FAIL] = 0
	L2_cache_stats_breakdown[GLOBAL_ACC_R][TOTAL_ACCESS] = 346456
	L2_cache_stats_breakdown[CONST_ACC_R][TOTAL_ACCESS] = 56
	L2_cache_stats_breakdown[GLOBAL_ACC_W][TOTAL_ACCESS] = 109568
	L2_cache_stats_breakdown[INST_ACC_R][TOTAL_ACCESS] = 364
L2_cache_data_port_util = 0.009
L2_cache_fill_port_util = 0.008

icnt_total_pkts_mem_to_simt=1270956
icnt_total_pkts_simt_to_mem=674556
LD_mem_lat_dist  0 0 0 0 0 0 0 0 0 0 0 0 0 0 0 0 0 0 0 0 0 0 0 0 0 0 0
ST_mem_lat_dist  0 0 0 0 0 0 0 0 0 0 0 0 0 0 0 0 0 0 0 0 0 0 0 0 0 0 0
----------------------------Interconnect-DETAILS--------------------------------
Class 0:
Packet latency average = 17.2952
	minimum = 6
	maximum = 752
Network latency average = 13.4943
	minimum = 6
	maximum = 747
Slowest packet = 534860
Flit latency average = 13.0775
	minimum = 6
	maximum = 743
Slowest flit = 1143041
Fragmentation average = 0.00151716
	minimum = 0
	maximum = 658
Injected packet rate average = 0.00391738
	minimum = 0.00339069 (at node 15)
	maximum = 0.00449052 (at node 41)
Accepted packet rate average = 0.00391738
	minimum = 0.00339069 (at node 15)
	maximum = 0.00449052 (at node 41)
Injected flit rate average = 0.00834857
	minimum = 0.00503765 (at node 22)
	maximum = 0.012496 (at node 37)
Accepted flit rate average= 0.00834857
	minimum = 0.00654686 (at node 34)
	maximum = 0.00992275 (at node 17)
Injected packet length average = 2.13116
Accepted packet length average = 2.13116
Total in-flight flits = 0 (0 measured)
====== Overall Traffic Statistics ======
====== Traffic class 0 ======
Packet latency average = 17.2952 (1 samples)
	minimum = 6 (1 samples)
	maximum = 752 (1 samples)
Network latency average = 13.4943 (1 samples)
[...]
F:  8048454----T:  8051059 	 St: c0280000 Sz: 4096 	 Sm: 0 	 T: memcpy_h2d(1.758947)
F:  8051059----T:  8053664 	 St: c0281000 Sz: 4096 	 Sm: 0 	 T: memcpy_h2d(1.758947)
F:  8053664----T:  8056269 	 St: c0286000 Sz: 4096 	 Sm: 0 	 T: memcpy_h2d(1.758947)
F:  8056269----T:  8058874 	 St: c0287000 Sz: 4096 	 Sm: 0 	 T: memcpy_h2d(1.758947)
F:  8058874----T:  8061479 	 St: c0282000 Sz: 4096 	 Sm: 0 	 T: memcpy_h2d(1.758947)
F:  8061479----T:  8064084 	 St: c0283000 Sz: 4096 	 Sm: 0 	 T: memcpy_h2d(1.758947)
F:  8064084----T:  8066689 	 St: c0284000 Sz: 4096 	 Sm: 0 	 T: memcpy_h2d(1.758947)
F:  8066689----T:  8069294 	 St: c0285000 Sz: 4096 	 Sm: 0 	 T: memcpy_h2d(1.758947)
F:  8069294----T:  8071899 	 St: c028a000 Sz: 4096 	 Sm: 0 	 T: memcpy_h2d(1.758947)
F:  8071899----T:  8074504 	 St: c0288000 Sz: 4096 	 Sm: 0 	 T: memcpy_h2d(1.758947)
F:  8074504----T:  8077109 	 St: c028b000 Sz: 4096 	 Sm: 0 	 T: memcpy_h2d(1.758947)
F:  8077109----T:  8079714 	 St: c0289000 Sz: 4096 	 Sm: 0 	 T: memcpy_h2d(1.758947)
F:  8079714----T:  8082319 	 St: c028e000 Sz: 4096 	 Sm: 0 	 T: memcpy_h2d(1.758947)
F:  8082319----T:  8084924 	 St: c028c000 Sz: 4096 	 Sm: 0 	 T: memcpy_h2d(1.758947)
F:  8084924----T:  8087529 	 St: c028f000 Sz: 4096 	 Sm: 0 	 T: memcpy_h2d(1.758947)
F:  8087529----T:  8090134 	 St: c028d000 Sz: 4096 	 Sm: 0 	 T: memcpy_h2d(1.758947)
F:  8090134----T:  8092739 	 St: c0290000 Sz: 4096 	 Sm: 0 	 T: memcpy_h2d(1.758947)
F:  8092739----T:  8095344 	 St: c0291000 Sz: 4096 	 Sm: 0 	 T: memcpy_h2d(1.758947)
F:  8095344----T:  8097949 	 St: c0292000 Sz: 4096 	 Sm: 0 	 T: memcpy_h2d(1.758947)
F:  8097949----T:  8100554 	 St: c0293000 Sz: 4096 	 Sm: 0 	 T: memcpy_h2d(1.758947)
F:  8100554----T:  8103159 	 St: c0294000 Sz: 4096 	 Sm: 0 	 T: memcpy_h2d(1.758947)
F:  8103159----T:  8105764 	 St: c0295000 Sz: 4096 	 Sm: 0 	 T: memcpy_h2d(1.758947)
F:  8105764----T:  8108369 	 St: c0298000 Sz: 4096 	 Sm: 0 	 T: memcpy_h2d(1.758947)
F:  8108369----T:  8110974 	 St: c0299000 Sz: 4096 	 Sm: 0 	 T: memcpy_h2d(1.758947)
F:  8110974----T:  8113579 	 St: c029c000 Sz: 4096 	 Sm: 0 	 T: memcpy_h2d(1.758947)
F:  8113579----T:  8116184 	 St: c029d000 Sz: 4096 	 Sm: 0 	 T: memcpy_h2d(1.758947)
F:  8116184----T:  8118789 	 St: c0296000 Sz: 4096 	 Sm: 0 	 T: memcpy_h2d(1.758947)
F:  8118789----T:  8121394 	 St: c0297000 Sz: 4096 	 Sm: 0 	 T: memcpy_h2d(1.758947)
F:  8121394----T:  8123999 	 St: c029a000 Sz: 4096 	 Sm: 0 	 T: memcpy_h2d(1.758947)
F:  8123999----T:  8126604 	 St: c029b000 Sz: 4096 	 Sm: 0 	 T: memcpy_h2d(1.758947)
F:  8126604----T:  8129209 	 St: c029e000 Sz: 4096 	 Sm: 0 	 T: memcpy_h2d(1.758947)
F:  8129209----T:  8131814 	 St: c029f000 Sz: 4096 	 Sm: 0 	 T: memcpy_h2d(1.758947)
F:  8139017----T:  8141622 	 St: c02a0000 Sz: 4096 	 Sm: 0 	 T: memcpy_h2d(1.758947)
F:  8139026----T:  8147728 	 St: c0490000 Sz: 65536 	 Sm: 0 	 T: write_back(5.875760)
F:  8141622----T:  8144227 	 St: c02a1000 Sz: 4096 	 Sm: 0 	 T: memcpy_h2d(1.758947)
F:  8144227----T:  8146832 	 St: c02a2000 Sz: 4096 	 Sm: 0 	 T: memcpy_h2d(1.758947)
F:  8146832----T:  8149437 	 St: c02a3000 Sz: 4096 	 Sm: 0 	 T: memcpy_h2d(1.758947)
F:  8147729----T:  8156431 	 St: c04a0000 Sz: 65536 	 Sm: 0 	 T: write_back(5.875760)
F:  8149437----T:  8152042 	 St: c02a6000 Sz: 4096 	 Sm: 0 	 T: memcpy_h2d(1.758947)
F:  8152042----T:  8154647 	 St: c02a7000 Sz: 4096 	 Sm: 0 	 T: memcpy_h2d(1.758947)
F:  8154647----T:  8157252 	 St: c02a8000 Sz: 4096 	 Sm: 0 	 T: memcpy_h2d(1.758947)
F:  8157252----T:  8159857 	 St: c02a9000 Sz: 4096 	 Sm: 0 	 T: memcpy_h2d(1.758947)
F:  8159857----T:  8162462 	 St: c02a4000 Sz: 4096 	 Sm: 0 	 T: memcpy_h2d(1.758947)
F:  8162462----T:  8165067 	 St: c02a5000 Sz: 4096 	 Sm: 0 	 T: memcpy_h2d(1.758947)
F:  8165067----T:  8167672 	 St: c02aa000 Sz: 4096 	 Sm: 0 	 T: memcpy_h2d(1.758947)
F:  8167672----T:  8170277 	 St: c02ab000 Sz: 4096 	 Sm: 0 	 T: memcpy_h2d(1.758947)
F:  8170277----T:  8172882 	 St: c02ae000 Sz: 4096 	 Sm: 0 	 T: memcpy_h2d(1.758947)
F:  8172882----T:  8175487 	 St: c02af000 Sz: 4096 	 Sm: 0 	 T: memcpy_h2d(1.758947)
F:  8175487----T:  8178092 	 St: c02b2000 Sz: 4096 	 Sm: 0 	 T: memcpy_h2d(1.758947)
F:  8178092----T:  8180697 	 St: c02b3000 Sz: 4096 	 Sm: 0 	 T: memcpy_h2d(1.758947)
F:  8180697----T:  8183302 	 St: c02b6000 Sz: 4096 	 Sm: 0 	 T: memcpy_h2d(1.758947)
F:  8183302----T:  8185907 	 St: c02b7000 Sz: 4096 	 Sm: 0 	 T: memcpy_h2d(1.758947)
F:  8185907----T:  8188512 	 St: c02ac000 Sz: 4096 	 Sm: 0 	 T: memcpy_h2d(1.758947)
F:  8188512----T:  8191117 	 St: c02ad000 Sz: 4096 	 Sm: 0 	 T: memcpy_h2d(1.758947)
F:  8191117----T:  8193722 	 St: c02b0000 Sz: 4096 	 Sm: 0 	 T: memcpy_h2d(1.758947)
F:  8193722----T:  8196327 	 St: c02b1000 Sz: 4096 	 Sm: 0 	 T: memcpy_h2d(1.758947)
F:  8196327----T:  8198932 	 St: c02b4000 Sz: 4096 	 Sm: 0 	 T: memcpy_h2d(1.758947)
F:  8198932----T:  8201537 	 St: c02b5000 Sz: 4096 	 Sm: 0 	 T: memcpy_h2d(1.758947)
F:  8201537----T:  8204142 	 St: c02c0000 Sz: 4096 	 Sm: 0 	 T: memcpy_h2d(1.758947)
F:  8204142----T:  8206747 	 St: c02c1000 Sz: 4096 	 Sm: 0 	 T: memcpy_h2d(1.758947)
F:  8206747----T:  8209352 	 St: c02b8000 Sz: 4096 	 Sm: 0 	 T: memcpy_h2d(1.758947)
F:  8209352----T:  8211957 	 St: c02b9000 Sz: 4096 	 Sm: 0 	 T: memcpy_h2d(1.758947)
F:  8211957----T:  8214562 	 St: c02ba000 Sz: 4096 	 Sm: 0 	 T: memcpy_h2d(1.758947)
F:  8214562----T:  8217167 	 St: c02bb000 Sz: 4096 	 Sm: 0 	 T: memcpy_h2d(1.758947)
F:  8217167----T:  8219772 	 St: c02bc000 Sz: 4096 	 Sm: 0 	 T: memcpy_h2d(1.758947)
F:  8219772----T:  8222377 	 St: c02bd000 Sz: 4096 	 Sm: 0 	 T: memcpy_h2d(1.758947)
F:  8222377----T:  8224982 	 St: c02be000 Sz: 4096 	 Sm: 0 	 T: memcpy_h2d(1.758947)
F:  8224982----T:  8227587 	 St: c02bf000 Sz: 4096 	 Sm: 0 	 T: memcpy_h2d(1.758947)
F:  8227587----T:  8230192 	 St: c02c2000 Sz: 4096 	 Sm: 0 	 T: memcpy_h2d(1.758947)
F:  8230192----T:  8232797 	 St: c02c3000 Sz: 4096 	 Sm: 0 	 T: memcpy_h2d(1.758947)
F:  8239850----T:  8242455 	 St: c02c4000 Sz: 4096 	 Sm: 0 	 T: memcpy_h2d(1.758947)
F:  8239855----T:  8248557 	 St: c04b0000 Sz: 65536 	 Sm: 0 	 T: write_back(5.875760)
F:  8242455----T:  8245060 	 St: c02c5000 Sz: 4096 	 Sm: 0 	 T: memcpy_h2d(1.758947)
F:  8245060----T:  8247665 	 St: c02c6000 Sz: 4096 	 Sm: 0 	 T: memcpy_h2d(1.758947)
F:  8247665----T:  8250270 	 St: c02c7000 Sz: 4096 	 Sm: 0 	 T: memcpy_h2d(1.758947)
F:  8248558----T:  8257260 	 St: c04c0000 Sz: 65536 	 Sm: 0 	 T: write_back(5.875760)
F:  8250270----T:  8252875 	 St: c02ca000 Sz: 4096 	 Sm: 0 	 T: memcpy_h2d(1.758947)
F:  8252875----T:  8255480 	 St: c02cb000 Sz: 4096 	 Sm: 0 	 T: memcpy_h2d(1.758947)
F:  8255480----T:  8258085 	 St: c02c8000 Sz: 4096 	 Sm: 0 	 T: memcpy_h2d(1.758947)
F:  8258085----T:  8260690 	 St: c02c9000 Sz: 4096 	 Sm: 0 	 T: memcpy_h2d(1.758947)
F:  8260690----T:  8263295 	 St: c02ce000 Sz: 4096 	 Sm: 0 	 T: memcpy_h2d(1.758947)
F:  8263295----T:  8265900 	 St: c02cf000 Sz: 4096 	 Sm: 0 	 T: memcpy_h2d(1.758947)
F:  8265900----T:  8268505 	 St: c02cc000 Sz: 4096 	 Sm: 0 	 T: memcpy_h2d(1.758947)
F:  8268505----T:  8271110 	 St: c02cd000 Sz: 4096 	 Sm: 0 	 T: memcpy_h2d(1.758947)
F:  8271110----T:  8273715 	 St: c02d0000 Sz: 4096 	 Sm: 0 	 T: memcpy_h2d(1.758947)
F:  8273715----T:  8276320 	 St: c02d1000 Sz: 4096 	 Sm: 0 	 T: memcpy_h2d(1.758947)
F:  8276320----T:  8278925 	 St: c02d2000 Sz: 4096 	 Sm: 0 	 T: memcpy_h2d(1.758947)
F:  8278925----T:  8281530 	 St: c02d3000 Sz: 4096 	 Sm: 0 	 T: memcpy_h2d(1.758947)
F:  8281530----T:  8284135 	 St: c02d6000 Sz: 4096 	 Sm: 0 	 T: memcpy_h2d(1.758947)
F:  8284135----T:  8286740 	 St: c02d7000 Sz: 4096 	 Sm: 0 	 T: memcpy_h2d(1.758947)
F:  8286740----T:  8289345 	 St: c02da000 Sz: 4096 	 Sm: 0 	 T: memcpy_h2d(1.758947)
F:  8289345----T:  8291950 	 St: c02db000 Sz: 4096 	 Sm: 0 	 T: memcpy_h2d(1.758947)
F:  8291950----T:  8294555 	 St: c02d8000 Sz: 4096 	 Sm: 0 	 T: memcpy_h2d(1.758947)
F:  8294555----T:  8297160 	 St: c02d9000 Sz: 4096 	 Sm: 0 	 T: memcpy_h2d(1.758947)
F:  8297160----T:  8299765 	 St: c02d4000 Sz: 4096 	 Sm: 0 	 T: memcpy_h2d(1.758947)
F:  8299765----T:  8302370 	 St: c02d5000 Sz: 4096 	 Sm: 0 	 T: memcpy_h2d(1.758947)
F:  8302370----T:  8304975 	 St: c02dc000 Sz: 4096 	 Sm: 0 	 T: memcpy_h2d(1.758947)
F:  8304975----T:  8307580 	 St: c02dd000 Sz: 4096 	 Sm: 0 	 T: memcpy_h2d(1.758947)
F:  8307580----T:  8310185 	 St: c02e0000 Sz: 4096 	 Sm: 0 	 T: memcpy_h2d(1.758947)
F:  8310185----T:  8312790 	 St: c02e1000 Sz: 4096 	 Sm: 0 	 T: memcpy_h2d(1.758947)
F:  8312790----T:  8315395 	 St: c02e4000 Sz: 4096 	 Sm: 0 	 T: memcpy_h2d(1.758947)
F:  8315395----T:  8318000 	 St: c02e5000 Sz: 4096 	 Sm: 0 	 T: memcpy_h2d(1.758947)
F:  8318000----T:  8320605 	 St: c02e6000 Sz: 4096 	 Sm: 0 	 T: memcpy_h2d(1.758947)
F:  8320605----T:  8323210 	 St: c02e7000 Sz: 4096 	 Sm: 0 	 T: memcpy_h2d(1.758947)
F:  8323210----T:  8325815 	 St: c02de000 Sz: 4096 	 Sm: 0 	 T: memcpy_h2d(1.758947)
F:  8325815----T:  8328420 	 St: c02df000 Sz: 4096 	 Sm: 0 	 T: memcpy_h2d(1.758947)
F:  8328420----T:  8331025 	 St: c02e2000 Sz: 4096 	 Sm: 0 	 T: memcpy_h2d(1.758947)
F:  8331025----T:  8333630 	 St: c02e3000 Sz: 4096 	 Sm: 0 	 T: memcpy_h2d(1.758947)
F:  8340708----T:  8343313 	 St: c02ea000 Sz: 4096 	 Sm: 0 	 T: memcpy_h2d(1.758947)
F:  8340709----T:  8349411 	 St: c04d0000 Sz: 65536 	 Sm: 0 	 T: write_back(5.875760)
F:  8343313----T:  8345918 	 St: c02eb000 Sz: 4096 	 Sm: 0 	 T: memcpy_h2d(1.758947)
F:  8345918----T:  8348523 	 St: c02e8000 Sz: 4096 	 Sm: 0 	 T: memcpy_h2d(1.758947)
F:  8348523----T:  8351128 	 St: c02e9000 Sz: 4096 	 Sm: 0 	 T: memcpy_h2d(1.758947)
F:  8349412----T:  8358114 	 St: c04e0000 Sz: 65536 	 Sm: 0 	 T: write_back(5.875760)
F:  8351128----T:  8353733 	 St: c02ee000 Sz: 4096 	 Sm: 0 	 T: memcpy_h2d(1.758947)
F:  8353733----T:  8356338 	 St: c02ef000 Sz: 4096 	 Sm: 0 	 T: memcpy_h2d(1.758947)
F:  8356338----T:  8358943 	 St: c02ec000 Sz: 4096 	 Sm: 0 	 T: memcpy_h2d(1.758947)
F:  8358943----T:  8361548 	 St: c02ed000 Sz: 4096 	 Sm: 0 	 T: memcpy_h2d(1.758947)
F:  8361548----T:  8364153 	 St: c02f0000 Sz: 4096 	 Sm: 0 	 T: memcpy_h2d(1.758947)
F:  8364153----T:  8366758 	 St: c02f1000 Sz: 4096 	 Sm: 0 	 T: memcpy_h2d(1.758947)
F:  8366758----T:  8369363 	 St: c02f2000 Sz: 4096 	 Sm: 0 	 T: memcpy_h2d(1.758947)
F:  8369363----T:  8371968 	 St: c02f3000 Sz: 4096 	 Sm: 0 	 T: memcpy_h2d(1.758947)
F:  8371968----T:  8374573 	 St: c02f4000 Sz: 4096 	 Sm: 0 	 T: memcpy_h2d(1.758947)
F:  8374573----T:  8377178 	 St: c02f5000 Sz: 4096 	 Sm: 0 	 T: memcpy_h2d(1.758947)
F:  8377178----T:  8379783 	 St: c02f6000 Sz: 4096 	 Sm: 0 	 T: memcpy_h2d(1.758947)
F:  8379783----T:  8382388 	 St: c02f7000 Sz: 4096 	 Sm: 0 	 T: memcpy_h2d(1.758947)
F:  8382388----T:  8384993 	 St: c02f8000 Sz: 4096 	 Sm: 0 	 T: memcpy_h2d(1.758947)
F:  8384993----T:  8387598 	 St: c02f9000 Sz: 4096 	 Sm: 0 	 T: memcpy_h2d(1.758947)
F:  8387598----T:  8390203 	 St: c02fc000 Sz: 4096 	 Sm: 0 	 T: memcpy_h2d(1.758947)
F:  8390203----T:  8392808 	 St: c02fd000 Sz: 4096 	 Sm: 0 	 T: memcpy_h2d(1.758947)
F:  8392808----T:  8395413 	 St: c02fa000 Sz: 4096 	 Sm: 0 	 T: memcpy_h2d(1.758947)
F:  8395413----T:  8398018 	 St: c02fb000 Sz: 4096 	 Sm: 0 	 T: memcpy_h2d(1.758947)
F:  8398018----T:  8400623 	 St: c02fe000 Sz: 4096 	 Sm: 0 	 T: memcpy_h2d(1.758947)
F:  8400623----T:  8403228 	 St: c02ff000 Sz: 4096 	 Sm: 0 	 T: memcpy_h2d(1.758947)
F:  8408843----T:  8411448 	 St: c0300000 Sz: 4096 	 Sm: 0 	 T: memcpy_h2d(1.758947)
F:  8408852----T:  8417554 	 St: c04f0000 Sz: 65536 	 Sm: 0 	 T: write_back(5.875760)
F:  8411448----T:  8414053 	 St: c0301000 Sz: 4096 	 Sm: 0 	 T: memcpy_h2d(1.758947)
F:  8414053----T:  8416658 	 St: c0302000 Sz: 4096 	 Sm: 0 	 T: memcpy_h2d(1.758947)
F:  8416658----T:  8419263 	 St: c0303000 Sz: 4096 	 Sm: 0 	 T: memcpy_h2d(1.758947)
F:  8417555----T:  8426257 	 St: c0500000 Sz: 65536 	 Sm: 0 	 T: write_back(5.875760)
F:  8419263----T:  8421868 	 St: c0304000 Sz: 4096 	 Sm: 0 	 T: memcpy_h2d(1.758947)
F:  8421868----T:  8424473 	 St: c0305000 Sz: 4096 	 Sm: 0 	 T: memcpy_h2d(1.758947)
F:  8424473----T:  8427078 	 St: c030a000 Sz: 4096 	 Sm: 0 	 T: memcpy_h2d(1.758947)
F:  8427078----T:  8429683 	 St: c030b000 Sz: 4096 	 Sm: 0 	 T: memcpy_h2d(1.758947)
F:  8429683----T:  8432288 	 St: c0306000 Sz: 4096 	 Sm: 0 	 T: memcpy_h2d(1.758947)
F:  8432288----T:  8434893 	 St: c0307000 Sz: 4096 	 Sm: 0 	 T: memcpy_h2d(1.758947)
F:  8434893----T:  8437498 	 St: c0308000 Sz: 4096 	 Sm: 0 	 T: memcpy_h2d(1.758947)
F:  8437498----T:  8440103 	 St: c0309000 Sz: 4096 	 Sm: 0 	 T: memcpy_h2d(1.758947)
F:  8440103----T:  8442708 	 St: c030c000 Sz: 4096 	 Sm: 0 	 T: memcpy_h2d(1.758947)
F:  8442708----T:  8445313 	 St: c030d000 Sz: 4096 	 Sm: 0 	 T: memcpy_h2d(1.758947)
F:  8445313----T:  8447918 	 St: c030e000 Sz: 4096 	 Sm: 0 	 T: memcpy_h2d(1.758947)
F:  8447918----T:  8450523 	 St: c030f000 Sz: 4096 	 Sm: 0 	 T: memcpy_h2d(1.758947)
F:  8450523----T:  8453128 	 St: c0310000 Sz: 4096 	 Sm: 0 	 T: memcpy_h2d(1.758947)
F:  8453128----T:  8455733 	 St: c0311000 Sz: 4096 	 Sm: 0 	 T: memcpy_h2d(1.758947)
F:  8455733----T:  8458338 	 St: c0316000 Sz: 4096 	 Sm: 0 	 T: memcpy_h2d(1.758947)
F:  8458338----T:  8460943 	 St: c0317000 Sz: 4096 	 Sm: 0 	 T: memcpy_h2d(1.758947)
F:  8460943----T:  8463548 	 St: c0312000 Sz: 4096 	 Sm: 0 	 T: memcpy_h2d(1.758947)
F:  8463548----T:  8466153 	 St: c0313000 Sz: 4096 	 Sm: 0 	 T: memcpy_h2d(1.758947)
F:  8466153----T:  8468758 	 St: c0314000 Sz: 4096 	 Sm: 0 	 T: memcpy_h2d(1.758947)
F:  8468758----T:  8471363 	 St: c0315000 Sz: 4096 	 Sm: 0 	 T: memcpy_h2d(1.758947)
F:  8471363----T:  8473968 	 St: c0318000 Sz: 4096 	 Sm: 0 	 T: memcpy_h2d(1.758947)
F:  8473968----T:  8476573 	 St: c0319000 Sz: 4096 	 Sm: 0 	 T: memcpy_h2d(1.758947)
F:  8476573----T:  8479178 	 St: c031a000 Sz: 4096 	 Sm: 0 	 T: memcpy_h2d(1.758947)
F:  8479178----T:  8481783 	 St: c031b000 Sz: 4096 	 Sm: 0 	 T: memcpy_h2d(1.758947)
F:  8481783----T:  8484388 	 St: c031c000 Sz: 4096 	 Sm: 0 	 T: memcpy_h2d(1.758947)
F:  8484388----T:  8486993 	 St: c031d000 Sz: 4096 	 Sm: 0 	 T: memcpy_h2d(1.758947)
F:  8486993----T:  8489598 	 St: c031e000 Sz: 4096 	 Sm: 0 	 T: memcpy_h2d(1.758947)
F:  8489598----T:  8492203 	 St: c031f000 Sz: 4096 	 Sm: 0 	 T: memcpy_h2d(1.758947)
F:  8492203----T:  8494808 	 St: c0322000 Sz: 4096 	 Sm: 0 	 T: memcpy_h2d(1.758947)
F:  8494808----T:  8497413 	 St: c0323000 Sz: 4096 	 Sm: 0 	 T: memcpy_h2d(1.758947)
F:  8497413----T:  8500018 	 St: c0320000 Sz: 4096 	 Sm: 0 	 T: memcpy_h2d(1.758947)
F:  8500018----T:  8502623 	 St: c0321000 Sz: 4096 	 Sm: 0 	 T: memcpy_h2d(1.758947)
F:  8509799----T:  8512404 	 St: c0324000 Sz: 4096 	 Sm: 0 	 T: memcpy_h2d(1.758947)
F:  8509804----T:  8518506 	 St: c0510000 Sz: 65536 	 Sm: 0 	 T: write_back(5.875760)
F:  8512404----T:  8515009 	 St: c0325000 Sz: 4096 	 Sm: 0 	 T: memcpy_h2d(1.758947)
F:  8515009----T:  8517614 	 St: c0326000 Sz: 4096 	 Sm: 0 	 T: memcpy_h2d(1.758947)
F:  8517614----T:  8520219 	 St: c0327000 Sz: 4096 	 Sm: 0 	 T: memcpy_h2d(1.758947)
F:  8520219----T:  8522824 	 St: c0328000 Sz: 4096 	 Sm: 0 	 T: memcpy_h2d(1.758947)
F:  8522824----T:  8525429 	 St: c0329000 Sz: 4096 	 Sm: 0 	 T: memcpy_h2d(1.758947)
F:  8525429----T:  8528034 	 St: c032a000 Sz: 4096 	 Sm: 0 	 T: memcpy_h2d(1.758947)
F:  8528034----T:  8530639 	 St: c032b000 Sz: 4096 	 Sm: 0 	 T: memcpy_h2d(1.758947)
F:  8530639----T:  8533244 	 St: c032e000 Sz: 4096 	 Sm: 0 	 T: memcpy_h2d(1.758947)
F:  8533244----T:  8535849 	 St: c032f000 Sz: 4096 	 Sm: 0 	 T: memcpy_h2d(1.758947)
F:  8535849----T:  8538454 	 St: c032c000 Sz: 4096 	 Sm: 0 	 T: memcpy_h2d(1.758947)
F:  8538454----T:  8541059 	 St: c032d000 Sz: 4096 	 Sm: 0 	 T: memcpy_h2d(1.758947)
F:  8595762----T:  8598367 	 St: 0 Sz: 4096 	 Sm: 0 	 T: device_sync(1.758947)
F:  8595762----T:  8604002 	 St: 0 Sz: 61440 	 Sm: 0 	 T: device_sync(5.563808)
F:  8606607----T:  8609212 	 St: 0 Sz: 4096 	 Sm: 0 	 T: device_sync(1.758947)
F:  8606607----T:  8614847 	 St: 0 Sz: 61440 	 Sm: 0 	 T: device_sync(5.563808)
F:  8617452----T:  8620057 	 St: 0 Sz: 4096 	 Sm: 0 	 T: device_sync(1.758947)
F:  8617452----T:  8633147 	 St: 0 Sz: 126976 	 Sm: 0 	 T: device_sync(10.597569)
F:  8635752----T:  8638357 	 St: 0 Sz: 4096 	 Sm: 0 	 T: device_sync(1.758947)
F:  8635752----T:  8666475 	 St: 0 Sz: 258048 	 Sm: 0 	 T: device_sync(20.744766)
F:  8669080----T:  8671685 	 St: 0 Sz: 4096 	 Sm: 0 	 T: device_sync(1.758947)
F:  8669080----T:  8729916 	 St: 0 Sz: 520192 	 Sm: 0 	 T: device_sync(41.077652)
F:  8732521----T:  8735126 	 St: 0 Sz: 4096 	 Sm: 0 	 T: device_sync(1.758947)
F:  8732521----T:  8853610 	 St: 0 Sz: 1044480 	 Sm: 0 	 T: device_sync(81.761650)
F:  8856215----T:  8858820 	 St: 0 Sz: 4096 	 Sm: 0 	 T: device_sync(1.758947)
F:  8856215----T:  8864455 	 St: 0 Sz: 61440 	 Sm: 0 	 T: device_sync(5.563808)
F:  8867060----T:  8869665 	 St: 0 Sz: 4096 	 Sm: 0 	 T: device_sync(1.758947)
F:  8867060----T:  8875300 	 St: 0 Sz: 61440 	 Sm: 0 	 T: device_sync(5.563808)
F:  8877905----T:  8880510 	 St: 0 Sz: 4096 	 Sm: 0 	 T: device_sync(1.758947)
F:  8877905----T:  8893600 	 St: 0 Sz: 126976 	 Sm: 0 	 T: device_sync(10.597569)
F:  8896205----T:  8898810 	 St: 0 Sz: 4096 	 Sm: 0 	 T: device_sync(1.758947)
F:  8896205----T:  8926928 	 St: 0 Sz: 258048 	 Sm: 0 	 T: device_sync(20.744766)
F:  8929533----T:  8932138 	 St: 0 Sz: 4096 	 Sm: 0 	 T: device_sync(1.758947)
F:  8929533----T:  8990369 	 St: 0 Sz: 520192 	 Sm: 0 	 T: device_sync(41.077652)
F:  8992974----T:  8995579 	 St: 0 Sz: 4096 	 Sm: 0 	 T: device_sync(1.758947)
F:  8992974----T:  9114063 	 St: 0 Sz: 1044480 	 Sm: 0 	 T: device_sync(81.761650)
F:  9116668----T:  9119273 	 St: 0 Sz: 4096 	 Sm: 0 	 T: device_sync(1.758947)
F:  9116668----T:  9124908 	 St: 0 Sz: 61440 	 Sm: 0 	 T: device_sync(5.563808)
F:  9127513----T:  9130118 	 St: 0 Sz: 4096 	 Sm: 0 	 T: device_sync(1.758947)
F:  9127513----T:  9135753 	 St: 0 Sz: 61440 	 Sm: 0 	 T: device_sync(5.563808)
F:  9138358----T:  9140963 	 St: 0 Sz: 4096 	 Sm: 0 	 T: device_sync(1.758947)
F:  9138358----T:  9154053 	 St: 0 Sz: 126976 	 Sm: 0 	 T: device_sync(10.597569)
F:  9156658----T:  9159263 	 St: 0 Sz: 4096 	 Sm: 0 	 T: device_sync(1.758947)
F:  9156658----T:  9187381 	 St: 0 Sz: 258048 	 Sm: 0 	 T: device_sync(20.744766)
F:  9189986----T:  9192591 	 St: 0 Sz: 4096 	 Sm: 0 	 T: device_sync(1.758947)
F:  9189986----T:  9250822 	 St: 0 Sz: 520192 	 Sm: 0 	 T: device_sync(41.077652)
F:  9253427----T:  9256032 	 St: 0 Sz: 4096 	 Sm: 0 	 T: device_sync(1.758947)
F:  9253427----T:  9374516 	 St: 0 Sz: 1044480 	 Sm: 0 	 T: device_sync(81.761650)
F:  9377121----T:  9379726 	 St: 0 Sz: 4096 	 Sm: 0 	 T: device_sync(1.758947)
F:  9377121----T:  9385361 	 St: 0 Sz: 61440 	 Sm: 0 	 T: device_sync(5.563808)
F:  9387966----T:  9390571 	 St: 0 Sz: 4096 	 Sm: 0 	 T: device_sync(1.758947)
F:  9387966----T:  9396206 	 St: 0 Sz: 61440 	 Sm: 0 	 T: device_sync(5.563808)
F:  9398811----T:  9401416 	 St: 0 Sz: 4096 	 Sm: 0 	 T: device_sync(1.758947)
F:  9398811----T:  9414506 	 St: 0 Sz: 126976 	 Sm: 0 	 T: device_sync(10.597569)
F:  9417111----T:  9419716 	 St: 0 Sz: 4096 	 Sm: 0 	 T: device_sync(1.758947)
F:  9417111----T:  9447834 	 St: 0 Sz: 258048 	 Sm: 0 	 T: device_sync(20.744766)
F:  9450439----T:  9453044 	 St: 0 Sz: 4096 	 Sm: 0 	 T: device_sync(1.758947)
F:  9450439----T:  9496215 	 St: 0 Sz: 389120 	 Sm: 0 	 T: device_sync(30.908846)
Tot_prefetch_time: 0(cycle), 0.000000(us)
Tot_kernel_exec_time: 7707162(cycle), 5204.025879(us)
Tot_kernel_exec_time_and_fault_time: 146528697(cycle), 98939.031250(us)
Tot_memcpy_h2d_time: 6769129(cycle), 4570.647461(us)
Tot_memcpy_d2h_time: 0(cycle), 0.000000(us)
Tot_memcpy_time: 6769129(cycle), 4570.647461(us)
Tot_devicesync_time: 903058(cycle), 609.762329(us)
Tot_writeback_time: 1131260(cycle), 763.848755(us)
Tot_dma_time: 0(cycle), 0.000000(us)
Tot_memcpy_d2h_sync_wb_time: 2034318(cycle), 1373.611084(us)
GPGPU-Sim: *** exit detected ***
