

        *** GPGPU-Sim Simulator Version 3.2.2  [build gpgpu-sim_git-commit-b59af3f95cf1bd6710f57ba8441bced1b556b409_modified_44] ***


GPGPU-Sim PTX: simulation mode 0 (can change with PTX_SIM_MODE_FUNC environment variable:
               1=functional simulation only, 0=detailed performance simulator)
GPGPU-Sim: Configuration options:

-network_mode                           1 # Interconnection network mode
-inter_config_file   config_fermi_islip.icnt # Interconnection network config file
-gpgpu_ptx_use_cuobjdump                    1 # Use cuobjdump to extract ptx and sass from binaries
-gpgpu_experimental_lib_support                    0 # Try to extract code from cuda libraries [Broken because of unknown cudaGetExportTable]
-gpgpu_ptx_convert_to_ptxplus                    0 # Convert SASS (native ISA) to ptxplus and run ptxplus
-gpgpu_ptx_force_max_capability                   20 # Force maximum compute capability
-gpgpu_ptx_inst_debug_to_file                    0 # Dump executed instructions' debug information to file
-gpgpu_ptx_inst_debug_file       inst_debug.txt # Executed instructions' debug output file
-gpgpu_ptx_inst_debug_thread_uid                    1 # Thread UID for executed instructions' debug output
-gpgpu_simd_model                       1 # 1 = post-dominator
-gpgpu_shader_core_pipeline              2048:32 # shader core pipeline config, i.e., {<nthread>:<warpsize>}
-gpgpu_tex_cache:l1  16:128:24,L:R:m:N:L,F:128:4,128:2 # per-shader L1 texture cache  (READ-ONLY) config  {<nsets>:<bsize>:<assoc>,<rep>:<wr>:<alloc>:<wr_alloc>,<mshr>:<N>:<merge>,<mq>:<rf>}
-gpgpu_const_cache:l1 128:64:2,L:R:f:N:L,A:2:64,4 # per-shader L1 constant memory cache  (READ-ONLY) config  {<nsets>:<bsize>:<assoc>,<rep>:<wr>:<alloc>:<wr_alloc>,<mshr>:<N>:<merge>,<mq>} 
-gpgpu_cache:il1     8:128:4,L:R:f:N:L,A:2:48,4 # shader L1 instruction cache config  {<nsets>:<bsize>:<assoc>,<rep>:<wr>:<alloc>:<wr_alloc>,<mshr>:<N>:<merge>,<mq>} 
-gpgpu_cache:dl1     64:128:6,L:L:m:N:H,A:128:8,8 # per-shader L1 data cache config  {<nsets>:<bsize>:<assoc>,<rep>:<wr>:<alloc>:<wr_alloc>,<mshr>:<N>:<merge>,<mq> | none}
-gpgpu_cache:dl1PrefL1                 none # per-shader L1 data cache config  {<nsets>:<bsize>:<assoc>,<rep>:<wr>:<alloc>:<wr_alloc>,<mshr>:<N>:<merge>,<mq> | none}
-gpgpu_cache:dl1PrefShared                 none # per-shader L1 data cache config  {<nsets>:<bsize>:<assoc>,<rep>:<wr>:<alloc>:<wr_alloc>,<mshr>:<N>:<merge>,<mq> | none}
-gmem_skip_L1D                          1 # global memory access skip L1D cache (implements -Xptxas -dlcm=cg, default=no skip)
-gpgpu_perfect_mem                      0 # enable perfect memory mode (no cache miss)
-n_regfile_gating_group                    4 # group of lanes that should be read/written together)
-gpgpu_clock_gated_reg_file                    0 # enable clock gated reg file for power calculations
-gpgpu_clock_gated_lanes                    0 # enable clock gated lanes for power calculations
-gpgpu_shader_registers                65536 # Number of registers per shader core. Limits number of concurrent CTAs. (default 8192)
-gpgpu_shader_cta                      32 # Maximum number of concurrent CTAs in shader (default 8)
-gpgpu_num_cta_barriers                   16 # Maximum number of named barriers per CTA (default 16)
-gpgpu_n_clusters                      28 # number of processing clusters
-gpgpu_n_cores_per_cluster                    1 # number of simd cores per cluster
-gpgpu_n_cluster_ejection_buffer_size                    8 # number of packets in ejection buffer
-gpgpu_n_ldst_response_buffer_size                    2 # number of response packets in ld/st unit ejection buffer
-gpgpu_shmem_size                   16384 # Size of shared memory per shader core (default 16kB)
-gpgpu_shmem_size                   98304 # Size of shared memory per shader core (default 16kB)
-gpgpu_shmem_size_PrefL1                16384 # Size of shared memory per shader core (default 16kB)
-gpgpu_shmem_size_PrefShared                16384 # Size of shared memory per shader core (default 16kB)
-gpgpu_shmem_num_banks                   32 # Number of banks in the shared memory in each shader core (default 16)
-gpgpu_shmem_limited_broadcast                    0 # Limit shared memory to do one broadcast per cycle (default on)
-gpgpu_shmem_warp_parts                    1 # Number of portions a warp is divided into for shared memory bank conflict check 
-gpgpu_warpdistro_shader                   -1 # Specify which shader core to collect the warp size distribution from
-gpgpu_warp_issue_shader                    0 # Specify which shader core to collect the warp issue distribution from
-gpgpu_local_mem_map                    1 # Mapping from local memory space address to simulated GPU physical address space (default = enabled)
-gpgpu_num_reg_banks                   32 # Number of register banks (default = 8)
-gpgpu_reg_bank_use_warp_id                    0 # Use warp ID in mapping registers to banks (default = off)
-gpgpu_operand_collector_num_units_sp                   20 # number of collector units (default = 4)
-gpgpu_operand_collector_num_units_sfu                    4 # number of collector units (default = 4)
-gpgpu_operand_collector_num_units_mem                    8 # number of collector units (default = 2)
-gpgpu_operand_collector_num_units_gen                    0 # number of collector units (default = 0)
-gpgpu_operand_collector_num_in_ports_sp                    4 # number of collector unit in ports (default = 1)
-gpgpu_operand_collector_num_in_ports_sfu                    1 # number of collector unit in ports (default = 1)
-gpgpu_operand_collector_num_in_ports_mem                    1 # number of collector unit in ports (default = 1)
-gpgpu_operand_collector_num_in_ports_gen                    0 # number of collector unit in ports (default = 0)
-gpgpu_operand_collector_num_out_ports_sp                    4 # number of collector unit in ports (default = 1)
-gpgpu_operand_collector_num_out_ports_sfu                    1 # number of collector unit in ports (default = 1)
-gpgpu_operand_collector_num_out_ports_mem                    1 # number of collector unit in ports (default = 1)
-gpgpu_operand_collector_num_out_ports_gen                    0 # number of collector unit in ports (default = 0)
-gpgpu_coalesce_arch                   13 # Coalescing arch (default = 13, anything else is off for now)
-gpgpu_num_sched_per_core                    2 # Number of warp schedulers per core
-gpgpu_max_insn_issue_per_warp                    2 # Max number of instructions that can be issued per warp in one cycle by scheduler
-gpgpu_simt_core_sim_order                    1 # Select the simulation order of cores in a cluster (0=Fix, 1=Round-Robin)
-gpgpu_pipeline_widths        4,1,1,4,1,1,6 # Pipeline widths ID_OC_SP,ID_OC_SFU,ID_OC_MEM,OC_EX_SP,OC_EX_SFU,OC_EX_MEM,EX_WB
-gpgpu_num_sp_units                     4 # Number of SP units (default=1)
-gpgpu_num_sfu_units                    1 # Number of SF units (default=1)
-gpgpu_num_mem_units                    1 # Number if ldst units (default=1) WARNING: not hooked up to anything
-gpgpu_scheduler                      gto # Scheduler configuration: < lrr | gto | two_level_active > If two_level_active:<num_active_warps>:<inner_prioritization>:<outer_prioritization>For complete list of prioritization values see shader.h enum scheduler_prioritization_typeDefault: gto
-gpgpu_concurrent_kernel_sm                    0 # Support concurrent kernels on a SM (default = disabled)
-tlb_size                            4096 # Number of tlb entries per SM.
-gpgpu_dram_scheduler                    1 # 0 = fifo, 1 = FR-FCFS (defaul)
-gpgpu_dram_partition_queues              8:8:8:8 # i2$:$2d:d2$:$2i
-l2_ideal                               0 # Use a ideal L2 cache that always hit
-gpgpu_cache:dl2     64:128:16,L:B:m:W:L,A:1024:1024,4:0,32 # unified banked L2 data cache config  {<nsets>:<bsize>:<assoc>,<rep>:<wr>:<alloc>:<wr_alloc>,<mshr>:<N>:<merge>,<mq>}
-gpgpu_cache:dl2_texture_only                    0 # L2 cache used for texture only
-gpgpu_n_mem                           11 # number of memory modules (e.g. memory controllers) in gpu
-gpgpu_n_sub_partition_per_mchannel                    2 # number of memory subpartition in each memory module
-gpgpu_n_mem_per_ctrlr                    1 # number of memory chips per memory controller
-gpgpu_memlatency_stat                   14 # track and display latency statistics 0x2 enables MC, 0x4 enables queue logs
-gpgpu_frfcfs_dram_sched_queue_size                   64 # 0 = unlimited (default); # entries per chip
-gpgpu_dram_return_queue_size                  116 # 0 = unlimited (default); # entries per chip
-gpgpu_dram_buswidth                    4 # default = 4 bytes (8 bytes per cycle at DDR)
-gpgpu_dram_burst_length                    8 # Burst length of each DRAM request (default = 4 data bus cycle)
-dram_data_command_freq_ratio                    4 # Frequency ratio between DRAM data bus and command bus (default = 2 times, i.e. DDR)
-gpgpu_dram_timing_opt nbk=16:CCD=2:RRD=6:RCD=12:RAS=28:RP=12:RC=40: CL=12:WL=4:CDLR=5:WR=12:nbkgrp=1:CCDL=0:RTPL=0 # DRAM timing parameters = {nbk:tCCD:tRRD:tRCD:tRAS:tRP:tRC:CL:WL:tCDLR:tWR:nbkgrp:tCCDL:tRTPL}
-rop_latency                          120 # ROP queue latency (default 85)
-dram_latency                         100 # DRAM latency (default 30)
-gpgpu_mem_addr_mapping dramid@8;00000000.00000000.00000000.00000000.0000RRRR.RRRRRRRR.RBBBCCCC.BCCSSSSS # mapping memory address to dram model {dramid@<start bit>;<memory address map>}
-gpgpu_mem_addr_test                    0 # run sweep test to check address mapping for aliased address
-gpgpu_mem_address_mask                    1 # 0 = old addressing mask, 1 = new addressing mask, 2 = new add. mask + flipped bank sel and chip sel bits
-gpuwattch_xml_file  gpuwattch_geforcegtx1080ti.xml # GPUWattch XML file
-power_simulation_enabled                    1 # Turn on power simulator (1=On, 0=Off)
-power_per_cycle_dump                    0 # Dump detailed power output each cycle
-power_trace_enabled                    0 # produce a file for the power trace (1=On, 0=Off)
-power_trace_zlevel                     6 # Compression level of the power trace output log (0=no comp, 9=highest)
-steady_power_levels_enabled                    0 # produce a file for the steady power levels (1=On, 0=Off)
-steady_state_definition                  8:4 # allowed deviation:number of samples
-gpgpu_max_cycle                        0 # terminates gpu simulation early (0 = no limit)
-gpgpu_max_insn                         0 # terminates gpu simulation early (0 = no limit)
-gpgpu_max_cta                          0 # terminates gpu simulation early (0 = no limit)
-gpgpu_runtime_stat                   500 # display runtime statistics such as dram utilization {<freq>:<flag>}
-liveness_message_freq                    1 # Minimum number of seconds between simulation liveness messages (0 = always print)
-gpgpu_flush_l1_cache                    0 # Flush L1 cache at the end of each kernel call
-gpgpu_flush_l2_cache                    0 # Flush L2 cache at the end of each kernel call
-gpgpu_deadlock_detect                    0 # Stop the simulation at deadlock (1=on (default), 0=off)
-gpgpu_ptx_instruction_classification                    0 # if enabled will classify ptx instruction types per kernel (Max 255 kernels now)
-gpgpu_ptx_sim_mode                     0 # Select between Performance (default) or Functional simulation (1)
-gpgpu_clock_domains 1481.0:2962.0:1481.0:2750.0 # Clock Domain Frequencies in MhZ {<Core Clock>:<ICNT Clock>:<L2 Clock>:<DRAM Clock>}
-gpgpu_max_concurrent_kernel                    8 # maximum kernels that can run concurrently on GPU
-gpgpu_cflog_interval                    0 # Interval between each snapshot in control flow logger
-visualizer_enabled                     0 # Turn on visualizer output (1=On, 0=Off)
-visualizer_outputfile                 NULL # Specifies the output log file for visualizer
-visualizer_zlevel                      6 # Compression level of the visualizer output log (0=no comp, 9=highest)
-trace_enabled                          0 # Turn on traces
-trace_components                    none # comma seperated list of traces to enable. Complete list found in trace_streams.tup. Default none
-trace_sampling_core                    0 # The core which is printed using CORE_DPRINTF. Default 0
-trace_sampling_memory_partition                   -1 # The memory partition which is printed using MEMPART_DPRINTF. Default -1 (i.e. all)
-gddr_size                       2.2472MB # Size of GDDR in MB/GB.(GLOBAL_HEAP_START, GLOBAL_HEAP_START + gddr_size) would be used for unmanged memory, (GLOBAL_HEAP_START + gddr_size, GLOBAL_HEAP_START + gddr_size*2) would be used for managed memory. 
-page_table_walk_latency                  100 # Average page table walk latency (in core cycle).
-eviction_policy                      lru # Memory eviction policy: lru or random.
-percentage_of_free_page_buffer                    0 # Percentage of free page buffer to trigger the page eviction.
-page_size                            4KB # GDDR page size, only 4KB/2MB avaliable.
-pcie_bandwith                   16.0GB/s # PCI-e bandwith per direction, in GB/s.
-sim_prof_enable                        1 # Enable gpgpu-sim profiler
-hardware_prefetch                      1 # Enable gpgpu-sim hardware prefetcher
-page_fault_latency                 66645 # Average fault latency (in core cycle).
-enable_accurate_simulation                    0 # Enable page fault functional simulation.
-enable_ptx_file_line_stats                    1 # Turn on PTX source line statistic profiling. (1 = On)
-ptx_line_stats_filename gpgpu_inst_stats.txt # Output file for PTX source line statistics.
-gpgpu_kernel_launch_latency               222150 # Kernel launch latency in cycles. Default: 0
-gpgpu_cdp_enabled                      0 # Turn on CDP
-save_embedded_ptx                      0 # saves ptx files embedded in binary as <n>.ptx
-keep                                   0 # keep intermediate files created by GPGPU-Sim when interfacing with external programs
-gpgpu_ptx_save_converted_ptxplus                    0 # Saved converted ptxplus to a file
-ptx_opcode_latency_int         4,13,4,5,145 # Opcode latencies for integers <ADD,MAX,MUL,MAD,DIV>Default 1,1,19,25,145
-ptx_opcode_latency_fp          4,13,4,5,39 # Opcode latencies for single precision floating points <ADD,MAX,MUL,MAD,DIV>Default 1,1,1,1,30
-ptx_opcode_latency_dp         8,19,8,8,330 # Opcode latencies for double precision floating points <ADD,MAX,MUL,MAD,DIV>Default 8,8,8,8,335
-ptx_opcode_initiation_int            1,2,2,2,8 # Opcode initiation intervals for integers <ADD,MAX,MUL,MAD,DIV>Default 1,1,4,4,32
-ptx_opcode_initiation_fp            1,2,1,1,4 # Opcode initiation intervals for single precision floating points <ADD,MAX,MUL,MAD,DIV>Default 1,1,1,1,5
-ptx_opcode_initiation_dp          1,2,1,1,130 # Opcode initiation intervals for double precision floating points <ADD,MAX,MUL,MAD,DIV>Default 8,8,8,8,130
-cdp_latency         7200,8000,100,12000,1600 # CDP API latency <cudaStreamCreateWithFlags, cudaGetParameterBufferV2_init_perWarp, cudaGetParameterBufferV2_perKernel, cudaLaunchDeviceV2_init_perWarp, cudaLaunchDevicV2_perKernel>Default 7200,8000,100,12000,1600
DRAM Timing Options:
nbk                                    16 # number of banks
CCD                                     2 # column to column delay
RRD                                     6 # minimal delay between activation of rows in different banks
RCD                                    12 # row to column delay
RAS                                    28 # time needed to activate row
RP                                     12 # time needed to precharge (deactivate) row
RC                                     40 # row cycle time
CDLR                                    5 # switching from write to read (changes tWTR)
WR                                     12 # last data-in to row precharge
CL                                     12 # CAS latency
WL                                      4 # Write latency
nbkgrp                                  1 # number of bank groups
CCDL                                    0 # column to column delay between accesses to different bank groups
RTPL                                    0 # read to precharge delay between accesses to different bank groups
Total number of memory sub partition = 22
addr_dec_mask[CHIP]  = 0000000000000000 	high:64 low:0
addr_dec_mask[BK]    = 0000000000007080 	high:15 low:7
addr_dec_mask[ROW]   = 000000000fff8000 	high:28 low:15
addr_dec_mask[COL]   = 0000000000000f7f 	high:12 low:0
addr_dec_mask[BURST] = 000000000000001f 	high:5 low:0
sub_partition_id_mask = 0000000000000080
GPGPU-Sim uArch: clock freqs: 1481000000.000000:2962000000.000000:1481000000.000000:2750000000.000000
GPGPU-Sim uArch: clock periods: 0.00000000067521944632:0.00000000033760972316:0.00000000067521944632:0.00000000036363636364
*** Initializing Memory Statistics ***
GPGPU-Sim uArch: interconnect node map (shaderID+MemID to icntID)
GPGPU-Sim uArch: Memory nodes ID start from index: 28
GPGPU-Sim uArch:    0   1   2   3   4   5   6
GPGPU-Sim uArch:    7   8   9  10  11  12  13
GPGPU-Sim uArch:   14  15  16  17  18  19  20
GPGPU-Sim uArch:   21  22  23  24  25  26  27
GPGPU-Sim uArch:   28  29  30  31  32  33  34
GPGPU-Sim uArch:   35  36  37  38  39  40  41
GPGPU-Sim uArch:   42  43  44  45  46  47  48
GPGPU-Sim uArch:   49
GPGPU-Sim uArch: interconnect node reverse map (icntID to shaderID+MemID)
GPGPU-Sim uArch: Memory nodes start from ID: 28
GPGPU-Sim uArch:    0   1   2   3   4   5   6
GPGPU-Sim uArch:    7   8   9  10  11  12  13
GPGPU-Sim uArch:   14  15  16  17  18  19  20
GPGPU-Sim uArch:   21  22  23  24  25  26  27
GPGPU-Sim uArch:   28  29  30  31  32  33  34
GPGPU-Sim uArch:   35  36  37  38  39  40  41
GPGPU-Sim uArch:   42  43  44  45  46  47  48
GPGPU-Sim uArch:   49
f56e3ebe0aba3852bc2c0e999e6a9f03  /home/gpuser/Documents/gpgpu-sim_UVM_new_backprop/benchmarks/Managed/backprop_gddr_0.9/backprop
GPGPU-Sim uArch: performance model initialization complete.
GPGPU-Sim PTX: __cudaRegisterFatBinary, fat_cubin_handle = 1, filename=default
self exe links to: /home/gpuser/Documents/gpgpu-sim_UVM_new_backprop/benchmarks/Managed/backprop_gddr_0.9/backprop
Running md5sum using "md5sum /home/gpuser/Documents/gpgpu-sim_UVM_new_backprop/benchmarks/Managed/backprop_gddr_0.9/backprop "
Parsing file _cuobjdump_complete_output_wIbANS
######### cuobjdump parser ########
## Adding new section ELF
Adding arch: sm_20
Adding identifier: default
## Adding new section ELF
Adding arch: sm_20
Adding identifier: default
## Adding new section PTX
Adding ptx filename: _cuobjdump_1.ptx
Adding arch: sm_20
Adding identifier: default
Done parsing!!!
GPGPU-Sim PTX: __cudaRegisterFunction _Z24bpnn_adjust_weights_cudaPfiS_iS_S_ : hostFun 0x0x402d5b, fat_cubin_handle = 1
GPGPU-Sim PTX: allocating shared region for "_Z22bpnn_layerforward_CUDAPfS_S_S_ii$__cuda_local_var_17900_34_non_const_input_node" from 0x0 to 0x40 (shared memory space)
GPGPU-Sim PTX: allocating shared region for "_Z22bpnn_layerforward_CUDAPfS_S_S_ii$__cuda_local_var_17901_34_non_const_weight_matrix" from 0x80 to 0x480 (shared memory space)
GPGPU-Sim PTX: instruction assembly for function '_Z22bpnn_layerforward_CUDAPfS_S_S_ii'...   done.
GPGPU-Sim PTX: finding reconvergence points for '_Z22bpnn_layerforward_CUDAPfS_S_S_ii'...
GPGPU-Sim PTX: Finding dominators for '_Z22bpnn_layerforward_CUDAPfS_S_S_ii'...
GPGPU-Sim PTX: Finding immediate dominators for '_Z22bpnn_layerforward_CUDAPfS_S_S_ii'...
GPGPU-Sim PTX: Finding postdominators for '_Z22bpnn_layerforward_CUDAPfS_S_S_ii'...
GPGPU-Sim PTX: Finding immediate postdominators for '_Z22bpnn_layerforward_CUDAPfS_S_S_ii'...
GPGPU-Sim PTX: pre-decoding instructions for '_Z22bpnn_layerforward_CUDAPfS_S_S_ii'...
GPGPU-Sim PTX: reconvergence points for _Z22bpnn_layerforward_CUDAPfS_S_S_ii...
GPGPU-Sim PTX:  1 (potential) branch divergence @  PC=0x068 (_1.ptx:47) @%p2 bra BB0_2;
GPGPU-Sim PTX:    immediate post dominator      @  PC=0x0a0 (_1.ptx:57) cvta.to.global.u64 %rd3, %rd8;
GPGPU-Sim PTX:  2 (potential) branch divergence @  PC=0x168 (_1.ptx:82) @%p3 bra BB0_7;
GPGPU-Sim PTX:    immediate post dominator      @  PC=0x250 (_1.ptx:119) setp.eq.s32%p1, %r3, 0;
GPGPU-Sim PTX:  3 (potential) branch divergence @  PC=0x1c8 (_1.ptx:97) @%p4 bra BB0_6;
GPGPU-Sim PTX:    immediate post dominator      @  PC=0x228 (_1.ptx:112) bar.sync 0;
GPGPU-Sim PTX:  4 (potential) branch divergence @  PC=0x248 (_1.ptx:116) @%p5 bra BB0_4;
GPGPU-Sim PTX:    immediate post dominator      @  PC=0x250 (_1.ptx:119) setp.eq.s32%p1, %r3, 0;
GPGPU-Sim PTX:  5 (potential) branch divergence @  PC=0x270 (_1.ptx:123) @!%p1 bra BB0_9;
GPGPU-Sim PTX:    immediate post dominator      @  PC=0x2c8 (_1.ptx:138) ret;
GPGPU-Sim PTX:  6 (potential) branch divergence @  PC=0x278 (_1.ptx:124) bra.uni BB0_8;
GPGPU-Sim PTX:    immediate post dominator      @  PC=0x280 (_1.ptx:127) cvt.u32.u64%r20, %rd1;
GPGPU-Sim PTX: ... end of reconvergence points for _Z22bpnn_layerforward_CUDAPfS_S_S_ii
GPGPU-Sim PTX: ... done pre-decoding instructions for '_Z22bpnn_layerforward_CUDAPfS_S_S_ii'.
GPGPU-Sim PTX: instruction assembly for function '_Z24bpnn_adjust_weights_cudaPfiS_iS_S_'...   done.
GPGPU-Sim PTX: finding reconvergence points for '_Z24bpnn_adjust_weights_cudaPfiS_iS_S_'...
GPGPU-Sim PTX: Finding dominators for '_Z24bpnn_adjust_weights_cudaPfiS_iS_S_'...
GPGPU-Sim PTX: Finding immediate dominators for '_Z24bpnn_adjust_weights_cudaPfiS_iS_S_'...
GPGPU-Sim PTX: Finding postdominators for '_Z24bpnn_adjust_weights_cudaPfiS_iS_S_'...
GPGPU-Sim PTX: Finding immediate postdominators for '_Z24bpnn_adjust_weights_cudaPfiS_iS_S_'...
GPGPU-Sim PTX: pre-decoding instructions for '_Z24bpnn_adjust_weights_cudaPfiS_iS_S_'...
GPGPU-Sim PTX: reconvergence points for _Z24bpnn_adjust_weights_cudaPfiS_iS_S_...
GPGPU-Sim PTX:  1 (potential) branch divergence @  PC=0x470 (_1.ptx:210) @%p1 bra BB1_2;
GPGPU-Sim PTX:    immediate post dominator      @  PC=0x530 (_1.ptx:237) ret;
GPGPU-Sim PTX: ... end of reconvergence points for _Z24bpnn_adjust_weights_cudaPfiS_iS_S_
GPGPU-Sim PTX: ... done pre-decoding instructions for '_Z24bpnn_adjust_weights_cudaPfiS_iS_S_'.
GPGPU-Sim PTX: finished parsing EMBEDDED .ptx file _1.ptx
Adding _cuobjdump_1.ptx with cubin handle 1
GPGPU-Sim PTX: extracting embedded .ptx to temporary file "_ptx_5CapDm"
Running: cat _ptx_5CapDm | sed 's/.version 1.5/.version 1.4/' | sed 's/, texmode_independent//' | sed 's/\(\.extern \.const\[1\] .b8 \w\+\)\[\]/\1\[1\]/' | sed 's/const\[.\]/const\[0\]/g' > _ptx2_UjTgtQ
GPGPU-Sim PTX: generating ptxinfo using "$CUDA_INSTALL_PATH/bin/ptxas --gpu-name=sm_20 -v _ptx2_UjTgtQ --output-file  /dev/null 2> _ptx_5CapDminfo"
GPGPU-Sim PTX: Kernel '_Z24bpnn_adjust_weights_cudaPfiS_iS_S_' : regs=22, lmem=0, smem=0, cmem=80
GPGPU-Sim PTX: Kernel '_Z22bpnn_layerforward_CUDAPfS_S_S_ii' : regs=11, lmem=0, smem=1088, cmem=72
GPGPU-Sim PTX: removing ptxinfo using "rm -f _ptx_5CapDm _ptx2_UjTgtQ _ptx_5CapDminfo"
GPGPU-Sim PTX: loading globals with explicit initializers... 
GPGPU-Sim PTX: finished loading globals (0 bytes total).
GPGPU-Sim PTX: loading constants with explicit initializers...  done.
GPGPU-Sim PTX: __cudaRegisterFunction _Z22bpnn_layerforward_CUDAPfS_S_S_ii : hostFun 0x0x402c0a, fat_cubin_handle = 1
Random number generator seed: 7
cudaMallocManaged called
cudaMallocManaged called
cudaMallocManaged called
cudaMallocManaged called
cudaMallocManaged called
cudaMallocManaged called
cudaMallocManaged called
cudaMallocManaged called
cudaMallocManaged called
cudaMallocManaged called
cudaMallocManaged called
Input layer size : 18000
Starting training kernel
Performing GPU computation

GPGPU-Sim PTX: cudaLaunch for 0x0x402c0a (mode=performance simulation) on stream 0
GPGPU-Sim PTX: pushing kernel '_Z22bpnn_layerforward_CUDAPfS_S_S_ii' to stream 0, gridDim= (1,1125,1) blockDim = (16,16,1) 
GPGPU-Sim uArch: Shader 1 bind to kernel 1 '_Z22bpnn_layerforward_CUDAPfS_S_S_ii'
GPGPU-Sim uArch: CTA/core = 8, limited by: threads
GPGPU-Sim uArch: Shader 2 bind to kernel 1 '_Z22bpnn_layerforward_CUDAPfS_S_S_ii'
GPGPU-Sim uArch: Shader 3 bind to kernel 1 '_Z22bpnn_layerforward_CUDAPfS_S_S_ii'
GPGPU-Sim uArch: Shader 4 bind to kernel 1 '_Z22bpnn_layerforward_CUDAPfS_S_S_ii'
GPGPU-Sim uArch: Shader 5 bind to kernel 1 '_Z22bpnn_layerforward_CUDAPfS_S_S_ii'
GPGPU-Sim uArch: Shader 6 bind to kernel 1 '_Z22bpnn_layerforward_CUDAPfS_S_S_ii'
GPGPU-Sim uArch: Shader 7 bind to kernel 1 '_Z22bpnn_layerforward_CUDAPfS_S_S_ii'
GPGPU-Sim uArch: Shader 8 bind to kernel 1 '_Z22bpnn_layerforward_CUDAPfS_S_S_ii'
GPGPU-Sim uArch: Shader 9 bind to kernel 1 '_Z22bpnn_layerforward_CUDAPfS_S_S_ii'
GPGPU-Sim uArch: Shader 10 bind to kernel 1 '_Z22bpnn_layerforward_CUDAPfS_S_S_ii'
GPGPU-Sim uArch: Shader 11 bind to kernel 1 '_Z22bpnn_layerforward_CUDAPfS_S_S_ii'
GPGPU-Sim uArch: Shader 12 bind to kernel 1 '_Z22bpnn_layerforward_CUDAPfS_S_S_ii'
GPGPU-Sim uArch: Shader 13 bind to kernel 1 '_Z22bpnn_layerforward_CUDAPfS_S_S_ii'
GPGPU-Sim uArch: Shader 14 bind to kernel 1 '_Z22bpnn_layerforward_CUDAPfS_S_S_ii'
GPGPU-Sim uArch: Shader 15 bind to kernel 1 '_Z22bpnn_layerforward_CUDAPfS_S_S_ii'
GPGPU-Sim uArch: Shader 16 bind to kernel 1 '_Z22bpnn_layerforward_CUDAPfS_S_S_ii'
GPGPU-Sim uArch: Shader 17 bind to kernel 1 '_Z22bpnn_layerforward_CUDAPfS_S_S_ii'
GPGPU-Sim uArch: Shader 18 bind to kernel 1 '_Z22bpnn_layerforward_CUDAPfS_S_S_ii'
GPGPU-Sim uArch: Shader 19 bind to kernel 1 '_Z22bpnn_layerforward_CUDAPfS_S_S_ii'
GPGPU-Sim uArch: Shader 20 bind to kernel 1 '_Z22bpnn_layerforward_CUDAPfS_S_S_ii'
GPGPU-Sim uArch: Shader 21 bind to kernel 1 '_Z22bpnn_layerforward_CUDAPfS_S_S_ii'
GPGPU-Sim uArch: Shader 22 bind to kernel 1 '_Z22bpnn_layerforward_CUDAPfS_S_S_ii'
GPGPU-Sim uArch: Shader 23 bind to kernel 1 '_Z22bpnn_layerforward_CUDAPfS_S_S_ii'
GPGPU-Sim uArch: Shader 24 bind to kernel 1 '_Z22bpnn_layerforward_CUDAPfS_S_S_ii'
GPGPU-Sim uArch: Shader 25 bind to kernel 1 '_Z22bpnn_layerforward_CUDAPfS_S_S_ii'
GPGPU-Sim uArch: Shader 26 bind to kernel 1 '_Z22bpnn_layerforward_CUDAPfS_S_S_ii'
GPGPU-Sim uArch: Shader 27 bind to kernel 1 '_Z22bpnn_layerforward_CUDAPfS_S_S_ii'
GPGPU-Sim uArch: Shader 0 bind to kernel 1 '_Z22bpnn_layerforward_CUDAPfS_S_S_ii'
Destroy streams for kernel 1: size 0
kernel_name = _Z22bpnn_layerforward_CUDAPfS_S_S_ii 
kernel_launch_uid = 1 
gpu_sim_cycle = 313486
gpu_sim_insn = 30888000
gpu_ipc =      98.5307
gpu_tot_sim_cycle = 535636
gpu_tot_sim_insn = 30888000
gpu_tot_ipc =      57.6660
gpu_tot_issued_cta = 1125
max_total_param_size = 0
gpu_stall_dramfull = 507
gpu_stall_icnt2sh    = 62492
partiton_reqs_in_parallel = 6896185
partiton_reqs_in_parallel_total    = 0
partiton_level_parallism =      21.9984
partiton_level_parallism_total  =      12.8748
partiton_reqs_in_parallel_util = 6896185
partiton_reqs_in_parallel_util_total    = 0
gpu_sim_cycle_parition_util = 313486
gpu_tot_sim_cycle_parition_util    = 0
partiton_level_parallism_util =      21.9984
partiton_level_parallism_util_total  =      21.9984
partiton_replys_in_parallel = 54758
partiton_replys_in_parallel_total    = 0
L2_BW  =      16.5563 GB/Sec
L2_BW_total  =       9.6898 GB/Sec
gpu_total_sim_rate=20633

========= Core cache stats =========
L1I_cache:
	L1I_total_cache_accesses = 642375
	L1I_total_cache_misses = 3489
	L1I_total_cache_miss_rate = 0.0054
	L1I_total_cache_pending_hits = 0
	L1I_total_cache_reservation_fails = 6846
L1D_cache:
	L1D_cache_core[0]: Access = 0, Miss = 0, Miss_rate = -nan, Pending_hits = 0, Reservation_fails = 0
	L1D_cache_core[1]: Access = 0, Miss = 0, Miss_rate = -nan, Pending_hits = 0, Reservation_fails = 0
	L1D_cache_core[2]: Access = 0, Miss = 0, Miss_rate = -nan, Pending_hits = 0, Reservation_fails = 0
	L1D_cache_core[3]: Access = 0, Miss = 0, Miss_rate = -nan, Pending_hits = 0, Reservation_fails = 0
	L1D_cache_core[4]: Access = 0, Miss = 0, Miss_rate = -nan, Pending_hits = 0, Reservation_fails = 0
	L1D_cache_core[5]: Access = 0, Miss = 0, Miss_rate = -nan, Pending_hits = 0, Reservation_fails = 0
	L1D_cache_core[6]: Access = 0, Miss = 0, Miss_rate = -nan, Pending_hits = 0, Reservation_fails = 0
	L1D_cache_core[7]: Access = 0, Miss = 0, Miss_rate = -nan, Pending_hits = 0, Reservation_fails = 0
	L1D_cache_core[8]: Access = 0, Miss = 0, Miss_rate = -nan, Pending_hits = 0, Reservation_fails = 0
	L1D_cache_core[9]: Access = 0, Miss = 0, Miss_rate = -nan, Pending_hits = 0, Reservation_fails = 0
	L1D_cache_core[10]: Access = 0, Miss = 0, Miss_rate = -nan, Pending_hits = 0, Reservation_fails = 0
	L1D_cache_core[11]: Access = 0, Miss = 0, Miss_rate = -nan, Pending_hits = 0, Reservation_fails = 0
	L1D_cache_core[12]: Access = 0, Miss = 0, Miss_rate = -nan, Pending_hits = 0, Reservation_fails = 0
	L1D_cache_core[13]: Access = 0, Miss = 0, Miss_rate = -nan, Pending_hits = 0, Reservation_fails = 0
	L1D_cache_core[14]: Access = 0, Miss = 0, Miss_rate = -nan, Pending_hits = 0, Reservation_fails = 0
	L1D_cache_core[15]: Access = 0, Miss = 0, Miss_rate = -nan, Pending_hits = 0, Reservation_fails = 0
	L1D_cache_core[16]: Access = 0, Miss = 0, Miss_rate = -nan, Pending_hits = 0, Reservation_fails = 0
	L1D_cache_core[17]: Access = 0, Miss = 0, Miss_rate = -nan, Pending_hits = 0, Reservation_fails = 0
	L1D_cache_core[18]: Access = 0, Miss = 0, Miss_rate = -nan, Pending_hits = 0, Reservation_fails = 0
	L1D_cache_core[19]: Access = 0, Miss = 0, Miss_rate = -nan, Pending_hits = 0, Reservation_fails = 0
	L1D_cache_core[20]: Access = 0, Miss = 0, Miss_rate = -nan, Pending_hits = 0, Reservation_fails = 0
	L1D_cache_core[21]: Access = 0, Miss = 0, Miss_rate = -nan, Pending_hits = 0, Reservation_fails = 0
	L1D_cache_core[22]: Access = 0, Miss = 0, Miss_rate = -nan, Pending_hits = 0, Reservation_fails = 0
	L1D_cache_core[23]: Access = 0, Miss = 0, Miss_rate = -nan, Pending_hits = 0, Reservation_fails = 0
	L1D_cache_core[24]: Access = 0, Miss = 0, Miss_rate = -nan, Pending_hits = 0, Reservation_fails = 0
	L1D_cache_core[25]: Access = 0, Miss = 0, Miss_rate = -nan, Pending_hits = 0, Reservation_fails = 0
	L1D_cache_core[26]: Access = 0, Miss = 0, Miss_rate = -nan, Pending_hits = 0, Reservation_fails = 0
	L1D_cache_core[27]: Access = 0, Miss = 0, Miss_rate = -nan, Pending_hits = 0, Reservation_fails = 0
	L1D_total_cache_accesses = 0
	L1D_total_cache_misses = 0
	L1D_total_cache_pending_hits = 0
	L1D_total_cache_reservation_fails = 0
	L1D_cache_data_port_util = 0.000
	L1D_cache_fill_port_util = 0.000
L1C_cache:
	L1C_total_cache_accesses = 36000
	L1C_total_cache_misses = 1792
	L1C_total_cache_miss_rate = 0.0498
	L1C_total_cache_pending_hits = 0
	L1C_total_cache_reservation_fails = 4886
L1T_cache:
	L1T_total_cache_accesses = 0
	L1T_total_cache_misses = 0
	L1T_total_cache_pending_hits = 0
	L1T_total_cache_reservation_fails = 0

Total_core_cache_stats:
	Total_core_cache_stats_breakdown[GLOBAL_ACC_R][HIT] = 0
	Total_core_cache_stats_breakdown[GLOBAL_ACC_R][HIT_RESERVED] = 0
	Total_core_cache_stats_breakdown[GLOBAL_ACC_R][MISS] = 0
	Total_core_cache_stats_breakdown[GLOBAL_ACC_R][RESERVATION_FAIL] = 0
	Total_core_cache_stats_breakdown[LOCAL_ACC_R][HIT] = 0
	Total_core_cache_stats_breakdown[LOCAL_ACC_R][HIT_RESERVED] = 0
	Total_core_cache_stats_breakdown[LOCAL_ACC_R][MISS] = 0
	Total_core_cache_stats_breakdown[LOCAL_ACC_R][RESERVATION_FAIL] = 0
	Total_core_cache_stats_breakdown[CONST_ACC_R][HIT] = 34208
	Total_core_cache_stats_breakdown[CONST_ACC_R][HIT_RESERVED] = 0
	Total_core_cache_stats_breakdown[CONST_ACC_R][MISS] = 1792
	Total_core_cache_stats_breakdown[CONST_ACC_R][RESERVATION_FAIL] = 4886
	Total_core_cache_stats_breakdown[TEXTURE_ACC_R][HIT] = 0
	Total_core_cache_stats_breakdown[TEXTURE_ACC_R][HIT_RESERVED] = 0
	Total_core_cache_stats_breakdown[TEXTURE_ACC_R][MISS] = 0
	Total_core_cache_stats_breakdown[TEXTURE_ACC_R][RESERVATION_FAIL] = 0
	Total_core_cache_stats_breakdown[GLOBAL_ACC_W][HIT] = 0
	Total_core_cache_stats_breakdown[GLOBAL_ACC_W][HIT_RESERVED] = 0
	Total_core_cache_stats_breakdown[GLOBAL_ACC_W][MISS] = 0
	Total_core_cache_stats_breakdown[GLOBAL_ACC_W][RESERVATION_FAIL] = 0
	Total_core_cache_stats_breakdown[LOCAL_ACC_W][HIT] = 0
	Total_core_cache_stats_breakdown[LOCAL_ACC_W][HIT_RESERVED] = 0
	Total_core_cache_stats_breakdown[LOCAL_ACC_W][MISS] = 0
	Total_core_cache_stats_breakdown[LOCAL_ACC_W][RESERVATION_FAIL] = 0
	Total_core_cache_stats_breakdown[L1_WRBK_ACC][HIT] = 0
	Total_core_cache_stats_breakdown[L1_WRBK_ACC][HIT_RESERVED] = 0
	Total_core_cache_stats_breakdown[L1_WRBK_ACC][MISS] = 0
	Total_core_cache_stats_breakdown[L1_WRBK_ACC][RESERVATION_FAIL] = 0
	Total_core_cache_stats_breakdown[L2_WRBK_ACC][HIT] = 0
	Total_core_cache_stats_breakdown[L2_WRBK_ACC][HIT_RESERVED] = 0
	Total_core_cache_stats_breakdown[L2_WRBK_ACC][MISS] = 0
	Total_core_cache_stats_breakdown[L2_WRBK_ACC][RESERVATION_FAIL] = 0
	Total_core_cache_stats_breakdown[INST_ACC_R][HIT] = 638886
	Total_core_cache_stats_breakdown[INST_ACC_R][HIT_RESERVED] = 0
	Total_core_cache_stats_breakdown[INST_ACC_R][MISS] = 3489
	Total_core_cache_stats_breakdown[INST_ACC_R][RESERVATION_FAIL] = 6846
	Total_core_cache_stats_breakdown[L1_WR_ALLOC_R][HIT] = 0
	Total_core_cache_stats_breakdown[L1_WR_ALLOC_R][HIT_RESERVED] = 0
	Total_core_cache_stats_breakdown[L1_WR_ALLOC_R][MISS] = 0
	Total_core_cache_stats_breakdown[L1_WR_ALLOC_R][RESERVATION_FAIL] = 0
	Total_core_cache_stats_breakdown[L2_WR_ALLOC_R][HIT] = 0
	Total_core_cache_stats_breakdown[L2_WR_ALLOC_R][HIT_RESERVED] = 0
	Total_core_cache_stats_breakdown[L2_WR_ALLOC_R][MISS] = 0
	Total_core_cache_stats_breakdown[L2_WR_ALLOC_R][RESERVATION_FAIL] = 0
	Total_core_cache_stats_breakdown[CONST_ACC_R][TOTAL_ACCESS] = 36000
	Total_core_cache_stats_breakdown[INST_ACC_R][TOTAL_ACCESS] = 642375
Shader 0 warp_id issue ditsribution:
warp_id:
0, 1, 2, 3, 4, 5, 6, 7, 8, 9, 10, 11, 12, 13, 14, 15, 16, 17, 18, 19, 20, 21, 22, 23, 24, 25, 26, 27, 28, 29, 30, 31, 32, 33, 34, 35, 36, 37, 38, 39, 40, 41, 42, 43, 44, 45, 46, 47, 48, 49, 50, 51, 52, 53, 54, 55, 56, 57, 58, 59, 60, 61, 62, 63, 
distro:
900, 712, 775, 713, 841, 715, 781, 718, 901, 713, 775, 715, 842, 713, 780, 720, 903, 716, 778, 716, 845, 716, 785, 719, 904, 715, 778, 715, 843, 713, 783, 719, 901, 717, 777, 713, 843, 715, 781, 717, 906, 716, 779, 715, 845, 716, 785, 720, 903, 716, 777, 717, 842, 717, 786, 720, 903, 715, 776, 716, 843, 714, 784, 722, 
gpgpu_n_tot_thrd_icount = 39060000
gpgpu_n_tot_w_icount = 1220625
gpgpu_n_stall_shd_mem = 50197
gpgpu_n_mem_read_local = 0
gpgpu_n_mem_write_local = 0
gpgpu_n_mem_read_global = 27562
gpgpu_n_mem_write_global = 27000
gpgpu_n_mem_texture = 0
gpgpu_n_mem_const = 28
gpgpu_n_load_insn  = 306000
gpgpu_n_store_insn = 306000
gpgpu_n_shmem_insn = 2286000
gpgpu_n_tex_insn = 0
gpgpu_n_const_mem_insn = 0
gpgpu_n_param_mem_insn = 1152000
gpgpu_n_shmem_bkconflict = 0
gpgpu_n_cache_bkconflict = 0
gpgpu_n_intrawarp_mshr_merge = 0
gpgpu_n_cmem_portconflict = 4886
gpgpu_stall_shd_mem[c_mem][bk_conf] = 4886
gpgpu_stall_shd_mem[c_mem][mshr_rc] = 0
gpgpu_stall_shd_mem[c_mem][icnt_rc] = 0
gpgpu_stall_shd_mem[c_mem][data_port_stall] = 0
gpgpu_stall_shd_mem[t_mem][mshr_rc] = 0
gpgpu_stall_shd_mem[t_mem][icnt_rc] = 0
gpgpu_stall_shd_mem[t_mem][data_port_stall] = 0
gpgpu_stall_shd_mem[s_mem][bk_conf] = 0
gpgpu_stall_shd_mem[gl_mem][bk_conf] = 0
gpgpu_stall_shd_mem[gl_mem][coal_stall] = 37197
gpgpu_stall_shd_mem[gl_mem][data_port_stall] = 0
gpgpu_stall_shd_mem[g_mem_ld][mshr_rc] = 0
gpgpu_stall_shd_mem[g_mem_ld][icnt_rc] = 8114
gpgpu_stall_shd_mem[g_mem_ld][wb_icnt_rc] = 0
gpgpu_stall_shd_mem[g_mem_ld][wb_rsrv_fail] = 0
gpgpu_stall_shd_mem[g_mem_st][mshr_rc] = 0
gpgpu_stall_shd_mem[g_mem_st][icnt_rc] = 0
gpgpu_stall_shd_mem[g_mem_st][wb_icnt_rc] = 0
gpgpu_stall_shd_mem[g_mem_st][wb_rsrv_fail] = 0
gpgpu_stall_shd_mem[l_mem_ld][mshr_rc] = 0
gpgpu_stall_shd_mem[l_mem_ld][icnt_rc] = 0
gpgpu_stall_shd_mem[l_mem_ld][wb_icnt_rc] = 0
gpgpu_stall_shd_mem[l_mem_ld][wb_rsrv_fail] = 0
gpgpu_stall_shd_mem[l_mem_st][mshr_rc] = 0
gpgpu_stall_shd_mem[l_mem_st][icnt_rc] = 0
gpgpu_stall_shd_mem[l_mem_ld][wb_icnt_rc] = 0
gpgpu_stall_shd_mem[l_mem_ld][wb_rsrv_fail] = 0
gpu_reg_bank_conflict_stalls = 0
Warp Occupancy Distribution:
Stall:55005	W0_Idle:339889	W0_Scoreboard:16099861	W1:0	W2:144000	W3:0	W4:0	W5:0	W6:0	W7:0	W8:0	W9:0	W10:0	W11:0	W12:0	W13:0	W14:0	W15:0	W16:185625	W17:0	W18:0	W19:0	W20:0	W21:0	W22:0	W23:0	W24:0	W25:0	W26:0	W27:0	W28:0	W29:0	W30:0	W31:0	W32:891000
traffic_breakdown_coretomem[CONST_ACC_R] = 224 {8:28,}
traffic_breakdown_coretomem[GLOBAL_ACC_R] = 220496 {8:27562,}
traffic_breakdown_coretomem[GLOBAL_ACC_W] = 2087968 {40:13501,72:4499,136:9000,}
traffic_breakdown_coretomem[INST_ACC_R] = 1344 {8:168,}
traffic_breakdown_memtocore[CONST_ACC_R] = 2016 {72:28,}
traffic_breakdown_memtocore[GLOBAL_ACC_R] = 2200496 {40:12375,72:5624,136:9563,}
traffic_breakdown_memtocore[GLOBAL_ACC_W] = 216000 {8:27000,}
traffic_breakdown_memtocore[INST_ACC_R] = 22848 {136:168,}
maxmrqlatency = 449 
maxdqlatency = 0 
maxmflatency = 134908 
averagemflatency = 15638 
max_icnt2mem_latency = 134498 
max_icnt2sh_latency = 535635 
mrq_lat_table:5323 	372 	706 	2095 	2015 	1919 	1870 	1857 	1929 	0 	0 	0 	0 	0 	0 	0 	0 	0 	0 	0 	0 	0 	0 	0 	0 	0 	0 	0 	0 	0 	0 	0 	
dq_lat_table:0 	0 	0 	0 	0 	0 	0 	0 	0 	0 	0 	0 	0 	0 	0 	0 	0 	0 	0 	0 	0 	0 	0 	0 	0 	0 	0 	0 	0 	0 	0 	0 	
mf_lat_table:0 	0 	0 	0 	0 	0 	0 	24927 	10737 	1 	27 	1640 	416 	2913 	2892 	8516 	608 	1913 	0 	0 	0 	0 	0 	0 	0 	0 	0 	0 	0 	0 	0 	0 	
icnt2mem_lat_table:0 	0 	7667 	16065 	1542 	30 	9946 	583 	0 	0 	144 	1539 	400 	2913 	5399 	6009 	608 	1913 	0 	0 	0 	0 	0 	0 	
icnt2sh_lat_table:0 	0 	5990 	13330 	7681 	589 	0 	0 	0 	0 	0 	0 	0 	0 	0 	0 	0 	1984 	21224 	3792 	0 	0 	0 	0 	
mf_lat_pw_table:0 	0 	0 	0 	0 	0 	0 	44 	9 	0 	1 	4 	0 	6 	5 	7 	1 	1 	0 	0 	0 	0 	0 	0 	0 	0 	0 	0 	0 	0 	0 	0 	
maximum concurrent accesses to same row:
dram[0]:        16        16        16        16        16        16        16        16        16        16        85        85        78        71        16        16 
dram[1]:        16        16        16        16        16        16        16        16        16        16        93        85        57       102        16        16 
dram[2]:        16        16        16        16        16        16        16        16        16        16        94        92        87       110        16        16 
dram[3]:        16        16        16        16        16        16        16        16        16        16        86        85        87        79        16        16 
dram[4]:        16        16        16        16        16        16        16        16        16        16        85        89        92        96        16        16 
dram[5]:        16        16        16        16        16        16        16        16        16        16       102       102        87        86        16        16 
dram[6]:        16        16        16        16        16        16        16        16        16        16       102       102       100        95        16        16 
dram[7]:        16        16        16        16        16        16        16        16        16        16       102       102        95        95        16        16 
dram[8]:        16        16        16        16        16        16        16        16        16        16       102       102        71        78        16        16 
dram[9]:        16        16        16        16        16        16        16        16        16        16       102       102       111        93        16        16 
dram[10]:        16        16        16        16        16        16        16        16        16        16       102       102        95        70        16        16 
maximum service time to same row:
dram[0]:    138707    138702    111519    111519    111507    111511     83541     83543     95549     95550    140325    140163    135829    135819    138954    138955 
dram[1]:    138657    138709    111521    111519    111514    111510     83542     83542     95553     95554    140372    140247    136008    135994    138954    138912 
dram[2]:    138646    138652    111517    111516    111503    111500     83543     83541     95551     95552    139985    140057    138584    138583    138923    138955 
dram[3]:    138644    138646    111513    111521    111513    111512     83541     83543     95553     95548    140229    139966    138550    138686    138960    138926 
dram[4]:    138672    138673    111520    111520    111485    111480     83542     83542     95549     95550    140290    140119    138580    138841    138925    138913 
dram[5]:    138625    138624    111520    111519    111508    111508     83541     83543     95548     95538    140079    140599    138802    138523    138915    138918 
dram[6]:    138647    138649    111521    111520    111506    111503     83542     83542     95540     95541    140620    140585    138496    138794    139010    139012 
dram[7]:    138652    138647    111519    111520    111504    111518     83534     83536     95541     95542    140608    140226    138533    138580    139013    138991 
dram[8]:    138650    138781    111520    111526    111518    111518     83535     83535     95544     95548    140335    140273    136062    135898    138989    139012 
dram[9]:    138745    138744    111526    111525    111520    111515     83535     83535     95554     95549    140413    140310    138488    138674    138988    138986 
dram[10]:    138745    138742    111525    111522    111507    111508     83534     83536     95550     95554    140256    140311    138853    135973    138981    138948 
average row accesses per activate:
dram[0]: 13.500000 13.250000 16.000000 16.000000 12.250000 12.250000 10.666667 10.666667  9.500000  9.500000 37.142857 35.142857 21.900000 24.500000 16.000000 16.000000 
dram[1]: 13.250000 13.250000 16.000000 16.000000 12.250000 12.250000 10.666667 10.666667  9.500000  9.333333 41.571430 39.285713 18.200001 20.083334 16.000000 16.000000 
dram[2]: 13.000000 13.000000 16.000000 16.000000 12.250000 12.250000 10.666667 10.666667  9.333333  7.000000 39.428570 40.285713 25.375000 23.400000 16.000000 16.000000 
dram[3]: 13.000000 13.000000 16.000000 16.000000 12.250000 12.250000 10.666667 10.666667  9.333333  7.000000 37.142857 37.571430 21.000000 25.375000 16.000000 16.000000 
dram[4]: 13.000000 13.000000 16.000000 16.000000 12.250000 12.250000 10.666667 10.666667  7.000000  7.000000 35.571430 37.571430 26.000000 33.833332 13.000000 13.000000 
dram[5]: 13.000000 13.000000 16.000000 16.000000 12.250000 12.250000 10.666667 10.666667  7.000000  9.333333 39.714287 39.571430 33.833332 26.375000 13.000000 13.000000 
dram[6]: 13.000000 13.000000 16.000000 16.000000 12.500000 12.500000 10.666667 10.666667  7.000000  7.000000 39.142857 40.857143 38.666668 36.500000 13.000000 13.000000 
dram[7]: 13.000000 13.000000 16.000000 16.000000 12.500000 12.500000 10.666667 10.666667  7.000000  7.000000 39.714287 41.000000 36.500000 35.166668 16.000000 16.000000 
dram[8]: 13.000000 13.000000 16.000000 16.000000 12.500000 12.500000 10.666667 10.666667  7.000000  7.000000 44.285713 40.000000 25.500000 26.375000 16.000000 16.000000 
dram[9]: 13.000000 13.000000 16.000000 16.000000 12.500000 12.500000 10.666667 10.666667  9.333333  9.333333 40.857143 40.857143 40.500000 36.166668 16.000000 16.000000 
dram[10]: 13.000000 13.000000 16.000000 16.000000 12.500000 12.500000 10.666667 10.666667  9.333333  9.333333 37.142857 39.714287 36.500000 25.375000 16.000000 16.000000 
average row locality = 18086/946 = 19.118393
number of total memory accesses made:
dram[0]:         0         0         0         0         0         0         0         0         0         0         0         0         0         0         0         0 
dram[1]:         0         0         0         0         0         0         0         0         0         0         0         0         0         0         0         0 
dram[2]:         0         0         0         0         0         0         0         0         0         0         0         0         0         0         0         0 
dram[3]:         0         0         0         0         0         0         0         0         0         0         0         0         0         0         0         0 
dram[4]:         0         0         0         0         0         0         0         0         0         0         0         0         0         0         0         0 
dram[5]:         0         0         0         0         0         0         0         0         0         0         0         0         0         0         0         0 
dram[6]:         0         0         0         0         0         0         0         0         0         0         0         0         0         0         0         0 
dram[7]:         0         0         0         0         0         0         0         0         0         0         0         0         0         0         0         0 
dram[8]:         0         0         0         0         0         0         0         0         0         0         0         0         0         0         0         0 
dram[9]:         0         0         0         0         0         0         0         0         0         0         0         0         0         0         0         0 
dram[10]:         0         0         0         0         0         0         0         0         0         0         0         0         0         0         0         0 
total accesses: 0
min_bank_accesses = 0!
min_chip_accesses = 0!
number of total read accesses:
dram[0]:        54        53        48        48        49        49        64        64        57        57        76        76        76        75        64        64 
dram[1]:        53        53        48        48        49        49        64        64        57        56        76        76        75        75        64        64 
dram[2]:        52        52        48        48        49        49        64        64        56        56        76        76        75        75        64        64 
dram[3]:        52        52        48        48        49        49        64        64        56        56        76        76        75        75        64        64 
dram[4]:        52        52        48        48        49        49        64        64        56        56        76        76        75        75        65        65 
dram[5]:        52        52        48        48        49        49        64        64        56        56        78        78        75        75        65        65 
dram[6]:        52        52        48        48        50        50        64        64        56        56        78        78        75        75        65        65 
dram[7]:        52        52        48        48        50        50        64        64        56        56        78        78        75        75        64        64 
dram[8]:        52        52        48        48        50        50        64        64        56        56        78        78        75        75        64        64 
dram[9]:        52        52        48        48        50        50        64        64        56        56        78        78        75        75        64        64 
dram[10]:        52        52        48        48        50        50        64        64        56        56        78        78        75        75        64        64 
total reads: 10697
bank skew: 78/48 = 1.62
chip skew: 976/968 = 1.01
number of total write accesses:
dram[0]:         0         0         0         0         0         0         0         0         0         0       184       170       143       121         0         0 
dram[1]:         0         0         0         0         0         0         0         0         0         0       215       199       107       166         0         0 
dram[2]:         0         0         0         0         0         0         0         0         0         0       200       206       128       159         0         0 
dram[3]:         0         0         0         0         0         0         0         0         0         0       184       187       135       128         0         0 
dram[4]:         0         0         0         0         0         0         0         0         0         0       173       187       133       128         0         0 
dram[5]:         0         0         0         0         0         0         0         0         0         0       200       199       128       136         0         0 
dram[6]:         0         0         0         0         0         0         0         0         0         0       196       208       157       144         0         0 
dram[7]:         0         0         0         0         0         0         0         0         0         0       200       209       144       136         0         0 
dram[8]:         0         0         0         0         0         0         0         0         0         0       232       202       129       136         0         0 
dram[9]:         0         0         0         0         0         0         0         0         0         0       208       208       168       142         0         0 
dram[10]:         0         0         0         0         0         0         0         0         0         0       182       200       144       128         0         0 
total reads: 7389
min_bank_accesses = 0!
chip skew: 726/618 = 1.17
average mf latency per bank:
dram[0]:      54450     55428     64753     64818     53642     52869     61764     61890     93461     95844     34900     36741     28570     31049     85275     85316
dram[1]:      56570     57431     66059     66152     53623     52886     61759     61845     91117     91176     31030     32853     33754     25516     85269     85745
dram[2]:      54340     54087     64721     64813     52849     52888     61764     61810     91020     90921     32578     32177     30742     26449     87651     87392
dram[3]:      53444     51714     64718     64804     52627     54768     62418     62534     99881     97800     33846     33214     29210     30258     85255     85287
dram[4]:      55420     56039     64731     64853     54134     52880     61777     61859     97845     97925     35049     33226     29579     30275     83944     84493
dram[5]:      55880     53544     64732     64821     52824     52884     61799     61900     97885     98452     33600     34223     30022     28837     84455     83763
dram[6]:      52273     55329     64727     65644     52930     52465     62788     62793     95964     97895     34379     32497     25956     27503     83690     83763
dram[7]:      56612     56656     65551     64853     53192     53206     59031     58976     97795     97870     33409     32387     27779     28883     85002     85161
dram[8]:      53551     53482     64711     64830     53136     53213     58935     58939     97609     96224     30110     33362     30672     29345     85027     85069
dram[9]:      55876     54748     64721     66147     53162     53991     58916     58932     99856     98739     32373     31824     24933     28213     85014     85064
dram[10]:      55563     53810     66063     64822     53165     53207     58925     58961     98698     98691     34825     32613     27839     30212     85445     87457
maximum mf latency per bank:
dram[0]:     124084    124059     63719     63786     63619     63643     63312     63371    134738    134777    134761    134863    132172    132238    132240    132308
dram[1]:     124094    124083     63708     63788     63586     63651     63318     63394    134743    134780    134762    134858    132180    132223    132257    132320
dram[2]:     123981    124012     63719     63789     63612     63669     63311     63389    134738    134750    134739    134800    132182    132240    132274    132296
dram[3]:     123976    124000     63719     63776     63578     63641     63334     63405    134724    134763    134748    134790    132189    132285    132273    132282
dram[4]:     124028    124035     63692     63834     63583     63649     63403     63395    134710    134760    134722    134851    132207    132303    132269    132299
dram[5]:     124003    124032     63702     63775     63553     63634     63305     63410    134715    134761    134702    134857    132175    132257    132255    132323
dram[6]:     124013    124056     63691     63772     63544     63627     63278     63356    134723    134783    134704    134899    132192    132285    132252    132332
dram[7]:     124047    124085     63673     63819     63565     63648     63312     63390    134749    134797    134723    134908    132205    132297    132281    132343
dram[8]:     124071    124072     63666     63805     63500     63579     63345     63385    134758    134788    134702    134787    132205    132237    132274    132322
dram[9]:     124046    124047     63676     63782     63492     63571     63324     63414    134748    134776    134676    134806    132200    132290    132301    132328
dram[10]:     124049    124049     63730     63766     63522     63609     63315     63416    134745    134798    134678    134764    132217    132283    132287    132323
Memory Partition 0: 
Cache L2_bank_000:
MSHR contents

Cache L2_bank_001:
MSHR contents

In Dram Latency Queue (total = 0): 
DRAM[0]: 16 bks, busW=4 BL=8 CL=12, tRRD=2 tCCD=6, tRCD=12 tRAS=28 tRP=12 tRC=40
n_cmd=582096 n_nop=577424 n_act=87 n_pre=71 n_req=1592 n_rd=3896 n_write=618 bw_util=0.01551
n_activity=12347 dram_eff=0.7312
bk0: 216a 580040i bk1: 212a 579792i bk2: 192a 581389i bk3: 192a 581038i bk4: 196a 580972i bk5: 196a 580660i bk6: 256a 580951i bk7: 256a 580606i bk8: 228a 580484i bk9: 228a 580130i bk10: 304a 579162i bk11: 304a 578603i bk12: 304a 578813i bk13: 300a 578748i bk14: 256a 579891i bk15: 256a 579584i 
dram_util_bins: 0 0 0 0 0 0 0 0 0 0
dram_eff_bins: 0 0 0 0 0 0 0 0 0 0
mrqq: max=64 avg=0.380539
Memory Partition 1: 
Cache L2_bank_002:
MSHR contents

Cache L2_bank_003:
MSHR contents

In Dram Latency Queue (total = 0): 
DRAM[1]: 16 bks, busW=4 BL=8 CL=12, tRRD=2 tCCD=6, tRCD=12 tRAS=28 tRP=12 tRC=40
n_cmd=582096 n_nop=577361 n_act=90 n_pre=74 n_req=1658 n_rd=3884 n_write=687 bw_util=0.01571
n_activity=12740 dram_eff=0.7176
bk0: 212a 580077i bk1: 212a 579813i bk2: 192a 581406i bk3: 192a 581011i bk4: 196a 580936i bk5: 196a 580665i bk6: 256a 580965i bk7: 256a 580600i bk8: 228a 580469i bk9: 224a 580052i bk10: 304a 579164i bk11: 304a 578544i bk12: 300a 578991i bk13: 300a 578487i bk14: 256a 579975i bk15: 256a 579516i 
dram_util_bins: 0 0 0 0 0 0 0 0 0 0
dram_eff_bins: 0 0 0 0 0 0 0 0 0 0
mrqq: max=64 avg=0.373409
Memory Partition 2: 
Cache L2_bank_004:
MSHR contents

Cache L2_bank_005:
MSHR contents

In Dram Latency Queue (total = 0): 
DRAM[2]: 16 bks, busW=4 BL=8 CL=12, tRRD=2 tCCD=6, tRCD=12 tRAS=28 tRP=12 tRC=40
n_cmd=582096 n_nop=577371 n_act=88 n_pre=72 n_req=1661 n_rd=3872 n_write=693 bw_util=0.01568
n_activity=12508 dram_eff=0.7299
bk0: 208a 580147i bk1: 208a 580010i bk2: 192a 581415i bk3: 192a 581050i bk4: 196a 580933i bk5: 196a 580642i bk6: 256a 580975i bk7: 256a 580605i bk8: 224a 580484i bk9: 224a 580063i bk10: 304a 579227i bk11: 304a 578655i bk12: 300a 578751i bk13: 300a 578198i bk14: 256a 579935i bk15: 256a 579720i 
dram_util_bins: 0 0 0 0 0 0 0 0 0 0
dram_eff_bins: 0 0 0 0 0 0 0 0 0 0
mrqq: max=64 avg=0.382916
Memory Partition 3: 
Cache L2_bank_006:
MSHR contents

Cache L2_bank_007:
MSHR contents

In Dram Latency Queue (total = 0): 
DRAM[3]: 16 bks, busW=4 BL=8 CL=12, tRRD=2 tCCD=6, tRCD=12 tRAS=28 tRP=12 tRC=40
n_cmd=582096 n_nop=577430 n_act=88 n_pre=72 n_req=1602 n_rd=3872 n_write=634 bw_util=0.01548
n_activity=12225 dram_eff=0.7372
bk0: 208a 580244i bk1: 208a 580171i bk2: 192a 581406i bk3: 192a 581042i bk4: 196a 580956i bk5: 196a 580660i bk6: 256a 580917i bk7: 256a 580533i bk8: 224a 580409i bk9: 224a 579967i bk10: 304a 579121i bk11: 304a 578453i bk12: 300a 578778i bk13: 300a 578513i bk14: 256a 579904i bk15: 256a 579497i 
dram_util_bins: 0 0 0 0 0 0 0 0 0 0
dram_eff_bins: 0 0 0 0 0 0 0 0 0 0
mrqq: max=64 avg=0.366269
Memory Partition 4: 
Cache L2_bank_008:
MSHR contents

Cache L2_bank_009:
MSHR contents

In Dram Latency Queue (total = 0): 
DRAM[4]: 16 bks, busW=4 BL=8 CL=12, tRRD=2 tCCD=6, tRCD=12 tRAS=28 tRP=12 tRC=40
n_cmd=582096 n_nop=577435 n_act=88 n_pre=72 n_req=1591 n_rd=3880 n_write=621 bw_util=0.01546
n_activity=12326 dram_eff=0.7303
bk0: 208a 580290i bk1: 208a 580136i bk2: 192a 581402i bk3: 192a 581036i bk4: 196a 580909i bk5: 196a 580637i bk6: 256a 580921i bk7: 256a 580488i bk8: 224a 580336i bk9: 224a 579880i bk10: 304a 579052i bk11: 304a 578435i bk12: 300a 578779i bk13: 300a 578521i bk14: 260a 579865i bk15: 260a 579480i 
dram_util_bins: 0 0 0 0 0 0 0 0 0 0
dram_eff_bins: 0 0 0 0 0 0 0 0 0 0
mrqq: max=64 avg=0.368371
Memory Partition 5: 
Cache L2_bank_010:
MSHR contents

Cache L2_bank_011:
MSHR contents

In Dram Latency Queue (total = 0): 
DRAM[5]: 16 bks, busW=4 BL=8 CL=12, tRRD=2 tCCD=6, tRCD=12 tRAS=28 tRP=12 tRC=40
n_cmd=582096 n_nop=577381 n_act=86 n_pre=70 n_req=1637 n_rd=3896 n_write=663 bw_util=0.01566
n_activity=12437 dram_eff=0.7331
bk0: 208a 580271i bk1: 208a 579982i bk2: 192a 581388i bk3: 192a 581030i bk4: 196a 580898i bk5: 196a 580591i bk6: 256a 580840i bk7: 256a 580449i bk8: 224a 580308i bk9: 224a 580034i bk10: 312a 579029i bk11: 312a 578481i bk12: 300a 578897i bk13: 300a 578506i bk14: 260a 579892i bk15: 260a 579555i 
dram_util_bins: 0 0 0 0 0 0 0 0 0 0
dram_eff_bins: 0 0 0 0 0 0 0 0 0 0
mrqq: max=64 avg=0.376201
Memory Partition 6: 
Cache L2_bank_012:
MSHR contents

Cache L2_bank_013:
MSHR contents

In Dram Latency Queue (total = 0): 
DRAM[6]: 16 bks, busW=4 BL=8 CL=12, tRRD=2 tCCD=6, tRCD=12 tRAS=28 tRP=12 tRC=40
n_cmd=582096 n_nop=577331 n_act=86 n_pre=70 n_req=1681 n_rd=3904 n_write=705 bw_util=0.01584
n_activity=12732 dram_eff=0.724
bk0: 208a 580265i bk1: 208a 579987i bk2: 192a 581384i bk3: 192a 581014i bk4: 200a 580892i bk5: 200a 580583i bk6: 256a 580864i bk7: 256a 580495i bk8: 224a 580402i bk9: 224a 579983i bk10: 312a 579085i bk11: 312a 578350i bk12: 300a 578963i bk13: 300a 578558i bk14: 260a 579881i bk15: 260a 579554i 
dram_util_bins: 0 0 0 0 0 0 0 0 0 0
dram_eff_bins: 0 0 0 0 0 0 0 0 0 0
mrqq: max=64 avg=0.380594
Memory Partition 7: 
Cache L2_bank_014:
MSHR contents

Cache L2_bank_015:
MSHR contents

In Dram Latency Queue (total = 0): 
DRAM[7]: 16 bks, busW=4 BL=8 CL=12, tRRD=2 tCCD=6, tRCD=12 tRAS=28 tRP=12 tRC=40
n_cmd=582096 n_nop=577359 n_act=84 n_pre=68 n_req=1663 n_rd=3896 n_write=689 bw_util=0.01575
n_activity=12533 dram_eff=0.7317
bk0: 208a 580276i bk1: 208a 579947i bk2: 192a 581376i bk3: 192a 580968i bk4: 200a 580830i bk5: 200a 580495i bk6: 256a 580774i bk7: 256a 580435i bk8: 224a 580259i bk9: 224a 579941i bk10: 312a 579044i bk11: 312a 578375i bk12: 300a 579015i bk13: 300a 578739i bk14: 256a 579978i bk15: 256a 579631i 
dram_util_bins: 0 0 0 0 0 0 0 0 0 0
dram_eff_bins: 0 0 0 0 0 0 0 0 0 0
mrqq: max=64 avg=0.38209
Memory Partition 8: 
Cache L2_bank_016:
MSHR contents

Cache L2_bank_017:
MSHR contents

In Dram Latency Queue (total = 0): 
DRAM[8]: 16 bks, busW=4 BL=8 CL=12, tRRD=2 tCCD=6, tRCD=12 tRAS=28 tRP=12 tRC=40
n_cmd=582096 n_nop=577341 n_act=88 n_pre=72 n_req=1673 n_rd=3896 n_write=699 bw_util=0.01579
n_activity=12374 dram_eff=0.7427
bk0: 208a 580299i bk1: 208a 580116i bk2: 192a 581387i bk3: 192a 581001i bk4: 200a 580858i bk5: 200a 580514i bk6: 256a 580806i bk7: 256a 580487i bk8: 224a 580264i bk9: 224a 579969i bk10: 312a 578818i bk11: 312a 578234i bk12: 300a 579174i bk13: 300a 578743i bk14: 256a 579934i bk15: 256a 579590i 
dram_util_bins: 0 0 0 0 0 0 0 0 0 0
dram_eff_bins: 0 0 0 0 0 0 0 0 0 0
mrqq: max=64 avg=0.382513
Memory Partition 9: 
Cache L2_bank_018:
MSHR contents

Cache L2_bank_019:
MSHR contents

In Dram Latency Queue (total = 0): 
DRAM[9]: 16 bks, busW=4 BL=8 CL=12, tRRD=2 tCCD=6, tRCD=12 tRAS=28 tRP=12 tRC=40
n_cmd=582096 n_nop=577330 n_act=80 n_pre=64 n_req=1700 n_rd=3896 n_write=726 bw_util=0.01588
n_activity=12503 dram_eff=0.7393
bk0: 208a 580375i bk1: 208a 580033i bk2: 192a 581356i bk3: 192a 580975i bk4: 200a 580918i bk5: 200a 580614i bk6: 256a 580810i bk7: 256a 580470i bk8: 224a 580416i bk9: 224a 580045i bk10: 312a 579084i bk11: 312a 578363i bk12: 300a 579157i bk13: 300a 578798i bk14: 256a 579933i bk15: 256a 579591i 
dram_util_bins: 0 0 0 0 0 0 0 0 0 0
dram_eff_bins: 0 0 0 0 0 0 0 0 0 0
mrqq: max=64 avg=0.380003
Memory Partition 10: 
Cache L2_bank_020:
MSHR contents

Cache L2_bank_021:
MSHR contents

In Dram Latency Queue (total = 0): 
DRAM[10]: 16 bks, busW=4 BL=8 CL=12, tRRD=2 tCCD=6, tRCD=12 tRAS=28 tRP=12 tRC=40
n_cmd=582096 n_nop=577398 n_act=82 n_pre=66 n_req=1628 n_rd=3896 n_write=654 bw_util=0.01563
n_activity=12220 dram_eff=0.7447
bk0: 208a 580404i bk1: 208a 580123i bk2: 192a 581369i bk3: 192a 581037i bk4: 200a 580924i bk5: 200a 580591i bk6: 256a 580899i bk7: 256a 580529i bk8: 224a 580435i bk9: 224a 579968i bk10: 312a 579009i bk11: 312a 578365i bk12: 300a 579029i bk13: 300a 578798i bk14: 256a 579797i bk15: 256a 579487i 
dram_util_bins: 0 0 0 0 0 0 0 0 0 0
dram_eff_bins: 0 0 0 0 0 0 0 0 0 0
mrqq: max=64 avg=0.376247

========= L2 cache stats =========
L2_cache_bank[0]: Access = 2516, Miss = 488, Miss_rate = 0.194, Pending_hits = 1065, Reservation_fails = 0
L2_cache_bank[1]: Access = 2480, Miss = 486, Miss_rate = 0.196, Pending_hits = 1034, Reservation_fails = 0
L2_cache_bank[2]: Access = 2470, Miss = 486, Miss_rate = 0.197, Pending_hits = 1010, Reservation_fails = 0
L2_cache_bank[3]: Access = 2461, Miss = 485, Miss_rate = 0.197, Pending_hits = 1067, Reservation_fails = 0
L2_cache_bank[4]: Access = 2459, Miss = 484, Miss_rate = 0.197, Pending_hits = 1008, Reservation_fails = 1
L2_cache_bank[5]: Access = 2459, Miss = 484, Miss_rate = 0.197, Pending_hits = 1083, Reservation_fails = 0
L2_cache_bank[6]: Access = 2459, Miss = 484, Miss_rate = 0.197, Pending_hits = 992, Reservation_fails = 0
L2_cache_bank[7]: Access = 2457, Miss = 484, Miss_rate = 0.197, Pending_hits = 1035, Reservation_fails = 0
L2_cache_bank[8]: Access = 2487, Miss = 485, Miss_rate = 0.195, Pending_hits = 1039, Reservation_fails = 0
L2_cache_bank[9]: Access = 2487, Miss = 485, Miss_rate = 0.195, Pending_hits = 1045, Reservation_fails = 0
L2_cache_bank[10]: Access = 2505, Miss = 487, Miss_rate = 0.194, Pending_hits = 1064, Reservation_fails = 0
L2_cache_bank[11]: Access = 2507, Miss = 487, Miss_rate = 0.194, Pending_hits = 1081, Reservation_fails = 0
L2_cache_bank[12]: Access = 2521, Miss = 488, Miss_rate = 0.194, Pending_hits = 1071, Reservation_fails = 0
L2_cache_bank[13]: Access = 2524, Miss = 488, Miss_rate = 0.193, Pending_hits = 1100, Reservation_fails = 0
L2_cache_bank[14]: Access = 2496, Miss = 487, Miss_rate = 0.195, Pending_hits = 1065, Reservation_fails = 0
L2_cache_bank[15]: Access = 2496, Miss = 487, Miss_rate = 0.195, Pending_hits = 1064, Reservation_fails = 0
L2_cache_bank[16]: Access = 2496, Miss = 487, Miss_rate = 0.195, Pending_hits = 1083, Reservation_fails = 0
L2_cache_bank[17]: Access = 2494, Miss = 487, Miss_rate = 0.195, Pending_hits = 1058, Reservation_fails = 0
L2_cache_bank[18]: Access = 2496, Miss = 487, Miss_rate = 0.195, Pending_hits = 1098, Reservation_fails = 0
L2_cache_bank[19]: Access = 2496, Miss = 487, Miss_rate = 0.195, Pending_hits = 1068, Reservation_fails = 0
L2_cache_bank[20]: Access = 2496, Miss = 487, Miss_rate = 0.195, Pending_hits = 1061, Reservation_fails = 0
L2_cache_bank[21]: Access = 2496, Miss = 487, Miss_rate = 0.195, Pending_hits = 1037, Reservation_fails = 0
L2_total_cache_accesses = 54758
L2_total_cache_misses = 10697
L2_total_cache_miss_rate = 0.1954
L2_total_cache_pending_hits = 23228
L2_total_cache_reservation_fails = 1
L2_total_cache_breakdown:
	L2_cache_stats_breakdown[GLOBAL_ACC_R][HIT] = 1192
	L2_cache_stats_breakdown[GLOBAL_ACC_R][HIT_RESERVED] = 16243
	L2_cache_stats_breakdown[GLOBAL_ACC_R][MISS] = 10127
	L2_cache_stats_breakdown[GLOBAL_ACC_R][RESERVATION_FAIL] = 0
	L2_cache_stats_breakdown[LOCAL_ACC_R][HIT] = 0
	L2_cache_stats_breakdown[LOCAL_ACC_R][HIT_RESERVED] = 0
	L2_cache_stats_breakdown[LOCAL_ACC_R][MISS] = 0
	L2_cache_stats_breakdown[LOCAL_ACC_R][RESERVATION_FAIL] = 0
	L2_cache_stats_breakdown[CONST_ACC_R][HIT] = 0
	L2_cache_stats_breakdown[CONST_ACC_R][HIT_RESERVED] = 27
	L2_cache_stats_breakdown[CONST_ACC_R][MISS] = 1
	L2_cache_stats_breakdown[CONST_ACC_R][RESERVATION_FAIL] = 0
	L2_cache_stats_breakdown[TEXTURE_ACC_R][HIT] = 0
	L2_cache_stats_breakdown[TEXTURE_ACC_R][HIT_RESERVED] = 0
	L2_cache_stats_breakdown[TEXTURE_ACC_R][MISS] = 0
	L2_cache_stats_breakdown[TEXTURE_ACC_R][RESERVATION_FAIL] = 0
	L2_cache_stats_breakdown[GLOBAL_ACC_W][HIT] = 19611
	L2_cache_stats_breakdown[GLOBAL_ACC_W][HIT_RESERVED] = 6826
	L2_cache_stats_breakdown[GLOBAL_ACC_W][MISS] = 563
	L2_cache_stats_breakdown[GLOBAL_ACC_W][RESERVATION_FAIL] = 1
	L2_cache_stats_breakdown[LOCAL_ACC_W][HIT] = 0
	L2_cache_stats_breakdown[LOCAL_ACC_W][HIT_RESERVED] = 0
	L2_cache_stats_breakdown[LOCAL_ACC_W][MISS] = 0
	L2_cache_stats_breakdown[LOCAL_ACC_W][RESERVATION_FAIL] = 0
	L2_cache_stats_breakdown[L1_WRBK_ACC][HIT] = 0
	L2_cache_stats_breakdown[L1_WRBK_ACC][HIT_RESERVED] = 0
	L2_cache_stats_breakdown[L1_WRBK_ACC][MISS] = 0
	L2_cache_stats_breakdown[L1_WRBK_ACC][RESERVATION_FAIL] = 0
	L2_cache_stats_breakdown[L2_WRBK_ACC][HIT] = 0
	L2_cache_stats_breakdown[L2_WRBK_ACC][HIT_RESERVED] = 0
	L2_cache_stats_breakdown[L2_WRBK_ACC][MISS] = 0
	L2_cache_stats_breakdown[L2_WRBK_ACC][RESERVATION_FAIL] = 0
	L2_cache_stats_breakdown[INST_ACC_R][HIT] = 30
	L2_cache_stats_breakdown[INST_ACC_R][HIT_RESERVED] = 132
	L2_cache_stats_breakdown[INST_ACC_R][MISS] = 6
	L2_cache_stats_breakdown[INST_ACC_R][RESERVATION_FAIL] = 0
	L2_cache_stats_breakdown[L1_WR_ALLOC_R][HIT] = 0
	L2_cache_stats_breakdown[L1_WR_ALLOC_R][HIT_RESERVED] = 0
	L2_cache_stats_breakdown[L1_WR_ALLOC_R][MISS] = 0
	L2_cache_stats_breakdown[L1_WR_ALLOC_R][RESERVATION_FAIL] = 0
	L2_cache_stats_breakdown[L2_WR_ALLOC_R][HIT] = 0
	L2_cache_stats_breakdown[L2_WR_ALLOC_R][HIT_RESERVED] = 0
	L2_cache_stats_breakdown[L2_WR_ALLOC_R][MISS] = 0
	L2_cache_stats_breakdown[L2_WR_ALLOC_R][RESERVATION_FAIL] = 0
	L2_cache_stats_breakdown[GLOBAL_ACC_R][TOTAL_ACCESS] = 27562
	L2_cache_stats_breakdown[CONST_ACC_R][TOTAL_ACCESS] = 28
	L2_cache_stats_breakdown[GLOBAL_ACC_W][TOTAL_ACCESS] = 27000
	L2_cache_stats_breakdown[INST_ACC_R][TOTAL_ACCESS] = 168
L2_cache_data_port_util = 0.008
L2_cache_fill_port_util = 0.006

icnt_total_pkts_mem_to_simt=117361
icnt_total_pkts_simt_to_mem=113257
LD_mem_lat_dist  0 0 0 0 0 0 0 0 0 0 0 0 0 0 0 0 0 0 0 0 0 0 0 0 0 0 0
ST_mem_lat_dist  0 0 0 0 0 0 0 0 0 0 0 0 0 0 0 0 0 0 0 0 0 0 0 0 0 0 0
----------------------------Interconnect-DETAILS--------------------------------
Class 0:
Packet latency average = 20.3499
	minimum = 6
	maximum = 124
Network latency average = 14.5927
	minimum = 6
	maximum = 102
Slowest packet = 27
Flit latency average = 13.6092
	minimum = 6
	maximum = 98
Slowest flit = 161591
Fragmentation average = 0.00016436
	minimum = 0
	maximum = 16
Injected packet rate average = 0.0034935
	minimum = 0.00293953 (at node 11)
	maximum = 0.00402571 (at node 41)
Accepted packet rate average = 0.0034935
	minimum = 0.00293953 (at node 11)
	maximum = 0.00402571 (at node 41)
Injected flit rate average = 0.00735659
	minimum = 0.00606887 (at node 11)
	maximum = 0.00870696 (at node 41)
Accepted flit rate average= 0.00735659
	minimum = 0.0063145 (at node 11)
	maximum = 0.0082795 (at node 41)
Injected packet length average = 2.10579
Accepted packet length average = 2.10579
Total in-flight flits = 0 (0 measured)
====== Overall Traffic Statistics ======
====== Traffic class 0 ======
Packet latency average = 20.3499 (1 samples)
	minimum = 6 (1 samples)
	maximum = 124 (1 samples)
Network latency average = 14.5927 (1 samples)
	minimum = 6 (1 samples)
	maximum = 102 (1 samples)
Flit latency average = 13.6092 (1 samples)
	minimum = 6 (1 samples)
	maximum = 98 (1 samples)
Fragmentation average = 0.00016436 (1 samples)
	minimum = 0 (1 samples)
	maximum = 16 (1 samples)
Injected packet rate average = 0.0034935 (1 samples)
	minimum = 0.00293953 (1 samples)
	maximum = 0.00402571 (1 samples)
Accepted packet rate average = 0.0034935 (1 samples)
	minimum = 0.00293953 (1 samples)
	maximum = 0.00402571 (1 samples)
Injected flit rate average = 0.00735659 (1 samples)
	minimum = 0.00606887 (1 samples)
	maximum = 0.00870696 (1 samples)
Accepted flit rate average = 0.00735659 (1 samples)
	minimum = 0.0063145 (1 samples)
	maximum = 0.0082795 (1 samples)
Injected packet size average = 2.10579 (1 samples)
Accepted packet size average = 2.10579 (1 samples)
Hops average = 1 (1 samples)
----------------------------END-of-Interconnect-DETAILS-------------------------


gpgpu_simulation_time = 0 days, 0 hrs, 24 min, 57 sec (1497 sec)
gpgpu_simulation_rate = 20633 (inst/sec)
gpgpu_simulation_rate = 357 (cycle/sec)
GPGPU-Sim: synchronize waiting for inactive GPU simulation
GPGPU-Sim API: Stream Manager State
GPGPU-Sim: detected inactive GPU simulation thread

GPGPU-Sim PTX: cudaLaunch for 0x0x402d5b (mode=performance simulation) on stream 0
GPGPU-Sim PTX: pushing kernel '_Z24bpnn_adjust_weights_cudaPfiS_iS_S_' to stream 0, gridDim= (1,1125,1) blockDim = (16,16,1) 
GPGPU-Sim uArch: Shader 13 bind to kernel 2 '_Z24bpnn_adjust_weights_cudaPfiS_iS_S_'
GPGPU-Sim uArch: CTA/core = 8, limited by: threads
GPGPU-Sim uArch: Shader 14 bind to kernel 2 '_Z24bpnn_adjust_weights_cudaPfiS_iS_S_'
GPGPU-Sim uArch: Shader 15 bind to kernel 2 '_Z24bpnn_adjust_weights_cudaPfiS_iS_S_'
GPGPU-Sim uArch: Shader 16 bind to kernel 2 '_Z24bpnn_adjust_weights_cudaPfiS_iS_S_'
GPGPU-Sim uArch: Shader 17 bind to kernel 2 '_Z24bpnn_adjust_weights_cudaPfiS_iS_S_'
GPGPU-Sim uArch: Shader 18 bind to kernel 2 '_Z24bpnn_adjust_weights_cudaPfiS_iS_S_'
GPGPU-Sim uArch: Shader 19 bind to kernel 2 '_Z24bpnn_adjust_weights_cudaPfiS_iS_S_'
GPGPU-Sim uArch: Shader 20 bind to kernel 2 '_Z24bpnn_adjust_weights_cudaPfiS_iS_S_'
GPGPU-Sim uArch: Shader 21 bind to kernel 2 '_Z24bpnn_adjust_weights_cudaPfiS_iS_S_'
GPGPU-Sim uArch: Shader 22 bind to kernel 2 '_Z24bpnn_adjust_weights_cudaPfiS_iS_S_'
GPGPU-Sim uArch: Shader 23 bind to kernel 2 '_Z24bpnn_adjust_weights_cudaPfiS_iS_S_'
GPGPU-Sim uArch: Shader 24 bind to kernel 2 '_Z24bpnn_adjust_weights_cudaPfiS_iS_S_'
GPGPU-Sim uArch: Shader 25 bind to kernel 2 '_Z24bpnn_adjust_weights_cudaPfiS_iS_S_'
GPGPU-Sim uArch: Shader 26 bind to kernel 2 '_Z24bpnn_adjust_weights_cudaPfiS_iS_S_'
GPGPU-Sim uArch: Shader 27 bind to kernel 2 '_Z24bpnn_adjust_weights_cudaPfiS_iS_S_'
GPGPU-Sim uArch: Shader 0 bind to kernel 2 '_Z24bpnn_adjust_weights_cudaPfiS_iS_S_'
GPGPU-Sim uArch: Shader 1 bind to kernel 2 '_Z24bpnn_adjust_weights_cudaPfiS_iS_S_'
GPGPU-Sim uArch: Shader 2 bind to kernel 2 '_Z24bpnn_adjust_weights_cudaPfiS_iS_S_'
GPGPU-Sim uArch: Shader 3 bind to kernel 2 '_Z24bpnn_adjust_weights_cudaPfiS_iS_S_'
GPGPU-Sim uArch: Shader 4 bind to kernel 2 '_Z24bpnn_adjust_weights_cudaPfiS_iS_S_'
GPGPU-Sim uArch: Shader 5 bind to kernel 2 '_Z24bpnn_adjust_weights_cudaPfiS_iS_S_'
GPGPU-Sim uArch: Shader 6 bind to kernel 2 '_Z24bpnn_adjust_weights_cudaPfiS_iS_S_'
GPGPU-Sim uArch: Shader 7 bind to kernel 2 '_Z24bpnn_adjust_weights_cudaPfiS_iS_S_'
GPGPU-Sim uArch: Shader 8 bind to kernel 2 '_Z24bpnn_adjust_weights_cudaPfiS_iS_S_'
GPGPU-Sim uArch: Shader 9 bind to kernel 2 '_Z24bpnn_adjust_weights_cudaPfiS_iS_S_'
GPGPU-Sim uArch: Shader 10 bind to kernel 2 '_Z24bpnn_adjust_weights_cudaPfiS_iS_S_'
GPGPU-Sim uArch: Shader 11 bind to kernel 2 '_Z24bpnn_adjust_weights_cudaPfiS_iS_S_'
GPGPU-Sim uArch: Shader 12 bind to kernel 2 '_Z24bpnn_adjust_weights_cudaPfiS_iS_S_'
Destroy streams for kernel 2: size 0
kernel_name = _Z24bpnn_adjust_weights_cudaPfiS_iS_S_ 
kernel_launch_uid = 2 
gpu_sim_cycle = 1588847
gpu_sim_insn = 15552352
gpu_ipc =       9.7885
gpu_tot_sim_cycle = 2515309
gpu_tot_sim_insn = 46440352
gpu_tot_ipc =      18.4631
gpu_tot_issued_cta = 2250
max_total_param_size = 0
gpu_stall_dramfull = 36120
gpu_stall_icnt2sh    = 71306
partiton_reqs_in_parallel = 34919021
partiton_reqs_in_parallel_total    = 6896185
partiton_level_parallism =      21.9776
partiton_level_parallism_total  =      16.6243
partiton_reqs_in_parallel_util = 34919021
partiton_reqs_in_parallel_util_total    = 6896185
gpu_sim_cycle_parition_util = 1588847
gpu_tot_sim_cycle_parition_util    = 313486
partiton_level_parallism_util =      21.9776
partiton_level_parallism_util_total  =      21.9810
partiton_replys_in_parallel = 127244
partiton_replys_in_parallel_total    = 54758
L2_BW  =       7.5908 GB/Sec
L2_BW_total  =       6.8584 GB/Sec
gpu_total_sim_rate=6320

========= Core cache stats =========
L1I_cache:
	L1I_total_cache_accesses = 894386
	L1I_total_cache_misses = 6594
	L1I_total_cache_miss_rate = 0.0074
	L1I_total_cache_pending_hits = 0
	L1I_total_cache_reservation_fails = 61338
L1D_cache:
	L1D_cache_core[0]: Access = 0, Miss = 0, Miss_rate = -nan, Pending_hits = 0, Reservation_fails = 0
	L1D_cache_core[1]: Access = 0, Miss = 0, Miss_rate = -nan, Pending_hits = 0, Reservation_fails = 0
	L1D_cache_core[2]: Access = 0, Miss = 0, Miss_rate = -nan, Pending_hits = 0, Reservation_fails = 0
	L1D_cache_core[3]: Access = 0, Miss = 0, Miss_rate = -nan, Pending_hits = 0, Reservation_fails = 0
	L1D_cache_core[4]: Access = 0, Miss = 0, Miss_rate = -nan, Pending_hits = 0, Reservation_fails = 0
	L1D_cache_core[5]: Access = 0, Miss = 0, Miss_rate = -nan, Pending_hits = 0, Reservation_fails = 0
	L1D_cache_core[6]: Access = 0, Miss = 0, Miss_rate = -nan, Pending_hits = 0, Reservation_fails = 0
	L1D_cache_core[7]: Access = 0, Miss = 0, Miss_rate = -nan, Pending_hits = 0, Reservation_fails = 0
	L1D_cache_core[8]: Access = 0, Miss = 0, Miss_rate = -nan, Pending_hits = 0, Reservation_fails = 0
	L1D_cache_core[9]: Access = 0, Miss = 0, Miss_rate = -nan, Pending_hits = 0, Reservation_fails = 0
	L1D_cache_core[10]: Access = 0, Miss = 0, Miss_rate = -nan, Pending_hits = 0, Reservation_fails = 0
	L1D_cache_core[11]: Access = 0, Miss = 0, Miss_rate = -nan, Pending_hits = 0, Reservation_fails = 0
	L1D_cache_core[12]: Access = 0, Miss = 0, Miss_rate = -nan, Pending_hits = 0, Reservation_fails = 0
	L1D_cache_core[13]: Access = 0, Miss = 0, Miss_rate = -nan, Pending_hits = 0, Reservation_fails = 0
	L1D_cache_core[14]: Access = 0, Miss = 0, Miss_rate = -nan, Pending_hits = 0, Reservation_fails = 0
	L1D_cache_core[15]: Access = 0, Miss = 0, Miss_rate = -nan, Pending_hits = 0, Reservation_fails = 0
	L1D_cache_core[16]: Access = 0, Miss = 0, Miss_rate = -nan, Pending_hits = 0, Reservation_fails = 0
	L1D_cache_core[17]: Access = 0, Miss = 0, Miss_rate = -nan, Pending_hits = 0, Reservation_fails = 0
	L1D_cache_core[18]: Access = 0, Miss = 0, Miss_rate = -nan, Pending_hits = 0, Reservation_fails = 0
	L1D_cache_core[19]: Access = 0, Miss = 0, Miss_rate = -nan, Pending_hits = 0, Reservation_fails = 0
	L1D_cache_core[20]: Access = 0, Miss = 0, Miss_rate = -nan, Pending_hits = 0, Reservation_fails = 0
	L1D_cache_core[21]: Access = 0, Miss = 0, Miss_rate = -nan, Pending_hits = 0, Reservation_fails = 0
	L1D_cache_core[22]: Access = 0, Miss = 0, Miss_rate = -nan, Pending_hits = 0, Reservation_fails = 0
	L1D_cache_core[23]: Access = 0, Miss = 0, Miss_rate = -nan, Pending_hits = 0, Reservation_fails = 0
	L1D_cache_core[24]: Access = 0, Miss = 0, Miss_rate = -nan, Pending_hits = 0, Reservation_fails = 0
	L1D_cache_core[25]: Access = 0, Miss = 0, Miss_rate = -nan, Pending_hits = 0, Reservation_fails = 0
	L1D_cache_core[26]: Access = 0, Miss = 0, Miss_rate = -nan, Pending_hits = 0, Reservation_fails = 0
	L1D_cache_core[27]: Access = 0, Miss = 0, Miss_rate = -nan, Pending_hits = 0, Reservation_fails = 0
	L1D_total_cache_accesses = 0
	L1D_total_cache_misses = 0
	L1D_total_cache_pending_hits = 0
	L1D_total_cache_reservation_fails = 0
	L1D_cache_data_port_util = 0.000
	L1D_cache_fill_port_util = 0.000
L1C_cache:
	L1C_total_cache_accesses = 81000
	L1C_total_cache_misses = 1792
	L1C_total_cache_miss_rate = 0.0221
	L1C_total_cache_pending_hits = 0
	L1C_total_cache_reservation_fails = 4886
L1T_cache:
	L1T_total_cache_accesses = 0
	L1T_total_cache_misses = 0
	L1T_total_cache_pending_hits = 0
	L1T_total_cache_reservation_fails = 0

Total_core_cache_stats:
	Total_core_cache_stats_breakdown[GLOBAL_ACC_R][HIT] = 0
	Total_core_cache_stats_breakdown[GLOBAL_ACC_R][HIT_RESERVED] = 0
	Total_core_cache_stats_breakdown[GLOBAL_ACC_R][MISS] = 0
	Total_core_cache_stats_breakdown[GLOBAL_ACC_R][RESERVATION_FAIL] = 0
	Total_core_cache_stats_breakdown[LOCAL_ACC_R][HIT] = 0
	Total_core_cache_stats_breakdown[LOCAL_ACC_R][HIT_RESERVED] = 0
	Total_core_cache_stats_breakdown[LOCAL_ACC_R][MISS] = 0
	Total_core_cache_stats_breakdown[LOCAL_ACC_R][RESERVATION_FAIL] = 0
	Total_core_cache_stats_breakdown[CONST_ACC_R][HIT] = 79208
	Total_core_cache_stats_breakdown[CONST_ACC_R][HIT_RESERVED] = 0
	Total_core_cache_stats_breakdown[CONST_ACC_R][MISS] = 1792
	Total_core_cache_stats_breakdown[CONST_ACC_R][RESERVATION_FAIL] = 4886
	Total_core_cache_stats_breakdown[TEXTURE_ACC_R][HIT] = 0
	Total_core_cache_stats_breakdown[TEXTURE_ACC_R][HIT_RESERVED] = 0
	Total_core_cache_stats_breakdown[TEXTURE_ACC_R][MISS] = 0
	Total_core_cache_stats_breakdown[TEXTURE_ACC_R][RESERVATION_FAIL] = 0
	Total_core_cache_stats_breakdown[GLOBAL_ACC_W][HIT] = 0
	Total_core_cache_stats_breakdown[GLOBAL_ACC_W][HIT_RESERVED] = 0
	Total_core_cache_stats_breakdown[GLOBAL_ACC_W][MISS] = 0
	Total_core_cache_stats_breakdown[GLOBAL_ACC_W][RESERVATION_FAIL] = 0
	Total_core_cache_stats_breakdown[LOCAL_ACC_W][HIT] = 0
	Total_core_cache_stats_breakdown[LOCAL_ACC_W][HIT_RESERVED] = 0
	Total_core_cache_stats_breakdown[LOCAL_ACC_W][MISS] = 0
	Total_core_cache_stats_breakdown[LOCAL_ACC_W][RESERVATION_FAIL] = 0
	Total_core_cache_stats_breakdown[L1_WRBK_ACC][HIT] = 0
	Total_core_cache_stats_breakdown[L1_WRBK_ACC][HIT_RESERVED] = 0
	Total_core_cache_stats_breakdown[L1_WRBK_ACC][MISS] = 0
	Total_core_cache_stats_breakdown[L1_WRBK_ACC][RESERVATION_FAIL] = 0
	Total_core_cache_stats_breakdown[L2_WRBK_ACC][HIT] = 0
	Total_core_cache_stats_breakdown[L2_WRBK_ACC][HIT_RESERVED] = 0
	Total_core_cache_stats_breakdown[L2_WRBK_ACC][MISS] = 0
	Total_core_cache_stats_breakdown[L2_WRBK_ACC][RESERVATION_FAIL] = 0
	Total_core_cache_stats_breakdown[INST_ACC_R][HIT] = 887792
	Total_core_cache_stats_breakdown[INST_ACC_R][HIT_RESERVED] = 0
	Total_core_cache_stats_breakdown[INST_ACC_R][MISS] = 6594
	Total_core_cache_stats_breakdown[INST_ACC_R][RESERVATION_FAIL] = 61338
	Total_core_cache_stats_breakdown[L1_WR_ALLOC_R][HIT] = 0
	Total_core_cache_stats_breakdown[L1_WR_ALLOC_R][HIT_RESERVED] = 0
	Total_core_cache_stats_breakdown[L1_WR_ALLOC_R][MISS] = 0
	Total_core_cache_stats_breakdown[L1_WR_ALLOC_R][RESERVATION_FAIL] = 0
	Total_core_cache_stats_breakdown[L2_WR_ALLOC_R][HIT] = 0
	Total_core_cache_stats_breakdown[L2_WR_ALLOC_R][HIT_RESERVED] = 0
	Total_core_cache_stats_breakdown[L2_WR_ALLOC_R][MISS] = 0
	Total_core_cache_stats_breakdown[L2_WR_ALLOC_R][RESERVATION_FAIL] = 0
	Total_core_cache_stats_breakdown[CONST_ACC_R][TOTAL_ACCESS] = 81000
	Total_core_cache_stats_breakdown[INST_ACC_R][TOTAL_ACCESS] = 894386
Shader 0 warp_id issue ditsribution:
warp_id:
0, 1, 2, 3, 4, 5, 6, 7, 8, 9, 10, 11, 12, 13, 14, 15, 16, 17, 18, 19, 20, 21, 22, 23, 24, 25, 26, 27, 28, 29, 30, 31, 32, 33, 34, 35, 36, 37, 38, 39, 40, 41, 42, 43, 44, 45, 46, 47, 48, 49, 50, 51, 52, 53, 54, 55, 56, 57, 58, 59, 60, 61, 62, 63, 
distro:
[...]
F:  2207304----T:  2209909 	 St: 8070f000 Sz: 4096 	 Sm: 0 	 T: write_back(1.758947)
F:  2209506----T:  2212111 	 St: 8059b000 Sz: 4096 	 Sm: 0 	 T: memcpy_h2d(1.758947)
F:  2209909----T:  2212514 	 St: 80710000 Sz: 4096 	 Sm: 0 	 T: write_back(1.758947)
F:  2212111----T:  2214716 	 St: 8059f000 Sz: 4096 	 Sm: 0 	 T: memcpy_h2d(1.758947)
F:  2212514----T:  2215119 	 St: 80501000 Sz: 4096 	 Sm: 0 	 T: write_back(1.758947)
F:  2214716----T:  2217321 	 St: 8059e000 Sz: 4096 	 Sm: 0 	 T: memcpy_h2d(1.758947)
F:  2215119----T:  2217724 	 St: 80711000 Sz: 4096 	 Sm: 0 	 T: write_back(1.758947)
F:  2217321----T:  2219926 	 St: 805a0000 Sz: 4096 	 Sm: 0 	 T: memcpy_h2d(1.758947)
F:  2217724----T:  2220329 	 St: 80502000 Sz: 4096 	 Sm: 0 	 T: write_back(1.758947)
F:  2219926----T:  2222531 	 St: 805a1000 Sz: 4096 	 Sm: 0 	 T: memcpy_h2d(1.758947)
F:  2220329----T:  2222934 	 St: 80712000 Sz: 4096 	 Sm: 0 	 T: write_back(1.758947)
F:  2222531----T:  2225136 	 St: 805a2000 Sz: 4096 	 Sm: 0 	 T: memcpy_h2d(1.758947)
F:  2222934----T:  2225539 	 St: 80503000 Sz: 4096 	 Sm: 0 	 T: write_back(1.758947)
F:  2225136----T:  2227741 	 St: 805a3000 Sz: 4096 	 Sm: 0 	 T: memcpy_h2d(1.758947)
F:  2225539----T:  2228144 	 St: 80713000 Sz: 4096 	 Sm: 0 	 T: write_back(1.758947)
F:  2227741----T:  2230346 	 St: 805a4000 Sz: 4096 	 Sm: 0 	 T: memcpy_h2d(1.758947)
F:  2230346----T:  2232951 	 St: 805a5000 Sz: 4096 	 Sm: 0 	 T: memcpy_h2d(1.758947)
F:  2232951----T:  2235556 	 St: 805a6000 Sz: 4096 	 Sm: 0 	 T: memcpy_h2d(1.758947)
F:  2235556----T:  2238161 	 St: 807b7000 Sz: 4096 	 Sm: 0 	 T: memcpy_h2d(1.758947)
F:  2238161----T:  2240766 	 St: 807b8000 Sz: 4096 	 Sm: 0 	 T: memcpy_h2d(1.758947)
F:  2238563----T:  2241168 	 St: 80504000 Sz: 4096 	 Sm: 0 	 T: write_back(1.758947)
F:  2240766----T:  2243371 	 St: 807b9000 Sz: 4096 	 Sm: 0 	 T: memcpy_h2d(1.758947)
F:  2243371----T:  2245976 	 St: 807ba000 Sz: 4096 	 Sm: 0 	 T: memcpy_h2d(1.758947)
F:  2243761----T:  2246366 	 St: 80714000 Sz: 4096 	 Sm: 0 	 T: write_back(1.758947)
F:  2245976----T:  2248581 	 St: 807bb000 Sz: 4096 	 Sm: 0 	 T: memcpy_h2d(1.758947)
F:  2246366----T:  2248971 	 St: 80505000 Sz: 4096 	 Sm: 0 	 T: write_back(1.758947)
F:  2248581----T:  2251186 	 St: 807bc000 Sz: 4096 	 Sm: 0 	 T: memcpy_h2d(1.758947)
F:  2248971----T:  2251576 	 St: 80715000 Sz: 4096 	 Sm: 0 	 T: write_back(1.758947)
F:  2251186----T:  2253791 	 St: 807bd000 Sz: 4096 	 Sm: 0 	 T: memcpy_h2d(1.758947)
F:  2251576----T:  2254181 	 St: 80506000 Sz: 4096 	 Sm: 0 	 T: write_back(1.758947)
F:  2253791----T:  2256396 	 St: 807be000 Sz: 4096 	 Sm: 0 	 T: memcpy_h2d(1.758947)
F:  2254182----T:  2256787 	 St: 80716000 Sz: 4096 	 Sm: 0 	 T: write_back(1.758947)
F:  2256396----T:  2259001 	 St: 8024f000 Sz: 4096 	 Sm: 0 	 T: memcpy_h2d(1.758947)
F:  2256787----T:  2259392 	 St: 80507000 Sz: 4096 	 Sm: 0 	 T: write_back(1.758947)
F:  2259001----T:  2261606 	 St: 80250000 Sz: 4096 	 Sm: 0 	 T: memcpy_h2d(1.758947)
F:  2259392----T:  2261997 	 St: 80717000 Sz: 4096 	 Sm: 0 	 T: write_back(1.758947)
F:  2261606----T:  2264211 	 St: 80251000 Sz: 4096 	 Sm: 0 	 T: memcpy_h2d(1.758947)
F:  2261997----T:  2264602 	 St: 80508000 Sz: 4096 	 Sm: 0 	 T: write_back(1.758947)
F:  2264211----T:  2266816 	 St: 805a7000 Sz: 4096 	 Sm: 0 	 T: memcpy_h2d(1.758947)
F:  2264602----T:  2267207 	 St: 80718000 Sz: 4096 	 Sm: 0 	 T: write_back(1.758947)
F:  2266816----T:  2269421 	 St: 805a8000 Sz: 4096 	 Sm: 0 	 T: memcpy_h2d(1.758947)
F:  2267207----T:  2269812 	 St: 80509000 Sz: 4096 	 Sm: 0 	 T: write_back(1.758947)
F:  2269421----T:  2272026 	 St: 805a9000 Sz: 4096 	 Sm: 0 	 T: memcpy_h2d(1.758947)
F:  2269812----T:  2272417 	 St: 80719000 Sz: 4096 	 Sm: 0 	 T: write_back(1.758947)
F:  2272026----T:  2274631 	 St: 805aa000 Sz: 4096 	 Sm: 0 	 T: memcpy_h2d(1.758947)
F:  2272417----T:  2275022 	 St: 8050a000 Sz: 4096 	 Sm: 0 	 T: write_back(1.758947)
F:  2274631----T:  2277236 	 St: 805ab000 Sz: 4096 	 Sm: 0 	 T: memcpy_h2d(1.758947)
F:  2275022----T:  2277627 	 St: 8071a000 Sz: 4096 	 Sm: 0 	 T: write_back(1.758947)
F:  2277236----T:  2279841 	 St: 805ac000 Sz: 4096 	 Sm: 0 	 T: memcpy_h2d(1.758947)
F:  2277627----T:  2280232 	 St: 8050b000 Sz: 4096 	 Sm: 0 	 T: write_back(1.758947)
F:  2279841----T:  2282446 	 St: 805ad000 Sz: 4096 	 Sm: 0 	 T: memcpy_h2d(1.758947)
F:  2280232----T:  2282837 	 St: 8071b000 Sz: 4096 	 Sm: 0 	 T: write_back(1.758947)
F:  2282446----T:  2285051 	 St: 805ae000 Sz: 4096 	 Sm: 0 	 T: memcpy_h2d(1.758947)
F:  2282837----T:  2285442 	 St: 8050c000 Sz: 4096 	 Sm: 0 	 T: write_back(1.758947)
F:  2285051----T:  2287656 	 St: 807c9000 Sz: 4096 	 Sm: 0 	 T: memcpy_h2d(1.758947)
F:  2285442----T:  2288047 	 St: 8071c000 Sz: 4096 	 Sm: 0 	 T: write_back(1.758947)
F:  2287656----T:  2290261 	 St: 807c0000 Sz: 4096 	 Sm: 0 	 T: memcpy_h2d(1.758947)
F:  2288047----T:  2290652 	 St: 8050d000 Sz: 4096 	 Sm: 0 	 T: write_back(1.758947)
F:  2290261----T:  2292866 	 St: 807c6000 Sz: 4096 	 Sm: 0 	 T: memcpy_h2d(1.758947)
F:  2290652----T:  2293257 	 St: 8071d000 Sz: 4096 	 Sm: 0 	 T: write_back(1.758947)
F:  2292866----T:  2295471 	 St: 807cb000 Sz: 4096 	 Sm: 0 	 T: memcpy_h2d(1.758947)
F:  2293257----T:  2295862 	 St: 8050e000 Sz: 4096 	 Sm: 0 	 T: write_back(1.758947)
F:  2295471----T:  2298076 	 St: 807cd000 Sz: 4096 	 Sm: 0 	 T: memcpy_h2d(1.758947)
F:  2295862----T:  2298467 	 St: 8071e000 Sz: 4096 	 Sm: 0 	 T: write_back(1.758947)
F:  2298076----T:  2300681 	 St: 807c8000 Sz: 4096 	 Sm: 0 	 T: memcpy_h2d(1.758947)
F:  2298467----T:  2301072 	 St: 8050f000 Sz: 4096 	 Sm: 0 	 T: write_back(1.758947)
F:  2300681----T:  2303286 	 St: 807cc000 Sz: 4096 	 Sm: 0 	 T: memcpy_h2d(1.758947)
F:  2301072----T:  2303677 	 St: 8071f000 Sz: 4096 	 Sm: 0 	 T: write_back(1.758947)
F:  2303286----T:  2305891 	 St: 807c2000 Sz: 4096 	 Sm: 0 	 T: memcpy_h2d(1.758947)
F:  2303677----T:  2306282 	 St: 80510000 Sz: 4096 	 Sm: 0 	 T: write_back(1.758947)
F:  2305891----T:  2308496 	 St: 807c3000 Sz: 4096 	 Sm: 0 	 T: memcpy_h2d(1.758947)
F:  2306282----T:  2308887 	 St: 80511000 Sz: 4096 	 Sm: 0 	 T: write_back(1.758947)
F:  2308496----T:  2311101 	 St: 807c4000 Sz: 4096 	 Sm: 0 	 T: memcpy_h2d(1.758947)
F:  2308887----T:  2311492 	 St: 80720000 Sz: 4096 	 Sm: 0 	 T: write_back(1.758947)
F:  2311101----T:  2313706 	 St: 807c7000 Sz: 4096 	 Sm: 0 	 T: memcpy_h2d(1.758947)
F:  2311492----T:  2314097 	 St: 80721000 Sz: 4096 	 Sm: 0 	 T: write_back(1.758947)
F:  2313706----T:  2316311 	 St: 807bf000 Sz: 4096 	 Sm: 0 	 T: memcpy_h2d(1.758947)
F:  2314097----T:  2316702 	 St: 80512000 Sz: 4096 	 Sm: 0 	 T: write_back(1.758947)
F:  2316311----T:  2318916 	 St: 807c1000 Sz: 4096 	 Sm: 0 	 T: memcpy_h2d(1.758947)
F:  2316702----T:  2319307 	 St: 80722000 Sz: 4096 	 Sm: 0 	 T: write_back(1.758947)
F:  2318916----T:  2321521 	 St: 807cf000 Sz: 4096 	 Sm: 0 	 T: memcpy_h2d(1.758947)
F:  2319307----T:  2321912 	 St: 80513000 Sz: 4096 	 Sm: 0 	 T: write_back(1.758947)
F:  2321521----T:  2324126 	 St: 807c5000 Sz: 4096 	 Sm: 0 	 T: memcpy_h2d(1.758947)
F:  2321912----T:  2324517 	 St: 80723000 Sz: 4096 	 Sm: 0 	 T: write_back(1.758947)
F:  2324126----T:  2326731 	 St: 807ca000 Sz: 4096 	 Sm: 0 	 T: memcpy_h2d(1.758947)
F:  2324517----T:  2327122 	 St: 80514000 Sz: 4096 	 Sm: 0 	 T: write_back(1.758947)
F:  2326731----T:  2329336 	 St: 807ce000 Sz: 4096 	 Sm: 0 	 T: memcpy_h2d(1.758947)
F:  2327122----T:  2329727 	 St: 80724000 Sz: 4096 	 Sm: 0 	 T: write_back(1.758947)
F:  2329336----T:  2331941 	 St: 807d1000 Sz: 4096 	 Sm: 0 	 T: memcpy_h2d(1.758947)
F:  2329727----T:  2332332 	 St: 80515000 Sz: 4096 	 Sm: 0 	 T: write_back(1.758947)
F:  2331941----T:  2334546 	 St: 807d9000 Sz: 4096 	 Sm: 0 	 T: memcpy_h2d(1.758947)
F:  2332332----T:  2334937 	 St: 80725000 Sz: 4096 	 Sm: 0 	 T: write_back(1.758947)
F:  2334546----T:  2337151 	 St: 807d3000 Sz: 4096 	 Sm: 0 	 T: memcpy_h2d(1.758947)
F:  2334937----T:  2337542 	 St: 80516000 Sz: 4096 	 Sm: 0 	 T: write_back(1.758947)
F:  2337151----T:  2339756 	 St: 807d8000 Sz: 4096 	 Sm: 0 	 T: memcpy_h2d(1.758947)
F:  2337542----T:  2340147 	 St: 80726000 Sz: 4096 	 Sm: 0 	 T: write_back(1.758947)
F:  2339756----T:  2342361 	 St: 807d2000 Sz: 4096 	 Sm: 0 	 T: memcpy_h2d(1.758947)
F:  2340147----T:  2342752 	 St: 80517000 Sz: 4096 	 Sm: 0 	 T: write_back(1.758947)
F:  2342361----T:  2344966 	 St: 807d4000 Sz: 4096 	 Sm: 0 	 T: memcpy_h2d(1.758947)
F:  2342752----T:  2345357 	 St: 80727000 Sz: 4096 	 Sm: 0 	 T: write_back(1.758947)
F:  2344966----T:  2347571 	 St: 807d6000 Sz: 4096 	 Sm: 0 	 T: memcpy_h2d(1.758947)
F:  2345357----T:  2347962 	 St: 80518000 Sz: 4096 	 Sm: 0 	 T: write_back(1.758947)
F:  2347571----T:  2350176 	 St: 807d0000 Sz: 4096 	 Sm: 0 	 T: memcpy_h2d(1.758947)
F:  2347962----T:  2350567 	 St: 80728000 Sz: 4096 	 Sm: 0 	 T: write_back(1.758947)
F:  2350176----T:  2352781 	 St: 807dd000 Sz: 4096 	 Sm: 0 	 T: memcpy_h2d(1.758947)
F:  2350567----T:  2353172 	 St: 80519000 Sz: 4096 	 Sm: 0 	 T: write_back(1.758947)
F:  2352781----T:  2355386 	 St: 807d5000 Sz: 4096 	 Sm: 0 	 T: memcpy_h2d(1.758947)
F:  2353172----T:  2355777 	 St: 80729000 Sz: 4096 	 Sm: 0 	 T: write_back(1.758947)
F:  2355386----T:  2357991 	 St: 807e0000 Sz: 4096 	 Sm: 0 	 T: memcpy_h2d(1.758947)
F:  2355777----T:  2358382 	 St: 8051a000 Sz: 4096 	 Sm: 0 	 T: write_back(1.758947)
F:  2357991----T:  2360596 	 St: 807da000 Sz: 4096 	 Sm: 0 	 T: memcpy_h2d(1.758947)
F:  2358382----T:  2360987 	 St: 8072a000 Sz: 4096 	 Sm: 0 	 T: write_back(1.758947)
F:  2360596----T:  2363201 	 St: 807d7000 Sz: 4096 	 Sm: 0 	 T: memcpy_h2d(1.758947)
F:  2360987----T:  2363592 	 St: 8051b000 Sz: 4096 	 Sm: 0 	 T: write_back(1.758947)
F:  2363201----T:  2365806 	 St: 807db000 Sz: 4096 	 Sm: 0 	 T: memcpy_h2d(1.758947)
F:  2363592----T:  2366197 	 St: 8072b000 Sz: 4096 	 Sm: 0 	 T: write_back(1.758947)
F:  2365806----T:  2368411 	 St: 807df000 Sz: 4096 	 Sm: 0 	 T: memcpy_h2d(1.758947)
F:  2366197----T:  2368802 	 St: 8051c000 Sz: 4096 	 Sm: 0 	 T: write_back(1.758947)
F:  2368411----T:  2371016 	 St: 807de000 Sz: 4096 	 Sm: 0 	 T: memcpy_h2d(1.758947)
F:  2368802----T:  2371407 	 St: 8072c000 Sz: 4096 	 Sm: 0 	 T: write_back(1.758947)
F:  2371016----T:  2373621 	 St: 807dc000 Sz: 4096 	 Sm: 0 	 T: memcpy_h2d(1.758947)
F:  2371407----T:  2374012 	 St: 8051d000 Sz: 4096 	 Sm: 0 	 T: write_back(1.758947)
F:  2373621----T:  2376226 	 St: 807e9000 Sz: 4096 	 Sm: 0 	 T: memcpy_h2d(1.758947)
F:  2374012----T:  2376617 	 St: 8072d000 Sz: 4096 	 Sm: 0 	 T: write_back(1.758947)
F:  2376226----T:  2378831 	 St: 807e3000 Sz: 4096 	 Sm: 0 	 T: memcpy_h2d(1.758947)
F:  2376617----T:  2379222 	 St: 8051e000 Sz: 4096 	 Sm: 0 	 T: write_back(1.758947)
F:  2378831----T:  2381436 	 St: 807e4000 Sz: 4096 	 Sm: 0 	 T: memcpy_h2d(1.758947)
F:  2379222----T:  2381827 	 St: 8072e000 Sz: 4096 	 Sm: 0 	 T: write_back(1.758947)
F:  2381436----T:  2384041 	 St: 807e6000 Sz: 4096 	 Sm: 0 	 T: memcpy_h2d(1.758947)
F:  2381827----T:  2384432 	 St: 8051f000 Sz: 4096 	 Sm: 0 	 T: write_back(1.758947)
F:  2384041----T:  2386646 	 St: 807e7000 Sz: 4096 	 Sm: 0 	 T: memcpy_h2d(1.758947)
F:  2384432----T:  2387037 	 St: 8072f000 Sz: 4096 	 Sm: 0 	 T: write_back(1.758947)
F:  2386646----T:  2389251 	 St: 807e5000 Sz: 4096 	 Sm: 0 	 T: memcpy_h2d(1.758947)
F:  2387037----T:  2389642 	 St: 80520000 Sz: 4096 	 Sm: 0 	 T: write_back(1.758947)
F:  2389251----T:  2391856 	 St: 807e2000 Sz: 4096 	 Sm: 0 	 T: memcpy_h2d(1.758947)
F:  2389642----T:  2392247 	 St: 80730000 Sz: 4096 	 Sm: 0 	 T: write_back(1.758947)
F:  2391856----T:  2394461 	 St: 807e1000 Sz: 4096 	 Sm: 0 	 T: memcpy_h2d(1.758947)
F:  2392247----T:  2394852 	 St: 80521000 Sz: 4096 	 Sm: 0 	 T: write_back(1.758947)
F:  2394461----T:  2397066 	 St: 807ea000 Sz: 4096 	 Sm: 0 	 T: memcpy_h2d(1.758947)
F:  2394852----T:  2397457 	 St: 80522000 Sz: 4096 	 Sm: 0 	 T: write_back(1.758947)
F:  2397066----T:  2399671 	 St: 807e8000 Sz: 4096 	 Sm: 0 	 T: memcpy_h2d(1.758947)
F:  2397457----T:  2400062 	 St: 80731000 Sz: 4096 	 Sm: 0 	 T: write_back(1.758947)
F:  2399671----T:  2402276 	 St: 805b9000 Sz: 4096 	 Sm: 0 	 T: memcpy_h2d(1.758947)
F:  2400062----T:  2402667 	 St: 80732000 Sz: 4096 	 Sm: 0 	 T: write_back(1.758947)
F:  2402276----T:  2404881 	 St: 805b0000 Sz: 4096 	 Sm: 0 	 T: memcpy_h2d(1.758947)
F:  2402667----T:  2405272 	 St: 80523000 Sz: 4096 	 Sm: 0 	 T: write_back(1.758947)
F:  2404881----T:  2407486 	 St: 805b6000 Sz: 4096 	 Sm: 0 	 T: memcpy_h2d(1.758947)
F:  2405272----T:  2407877 	 St: 80733000 Sz: 4096 	 Sm: 0 	 T: write_back(1.758947)
F:  2407486----T:  2410091 	 St: 805bb000 Sz: 4096 	 Sm: 0 	 T: memcpy_h2d(1.758947)
F:  2407877----T:  2410482 	 St: 80524000 Sz: 4096 	 Sm: 0 	 T: write_back(1.758947)
F:  2410091----T:  2412696 	 St: 805bd000 Sz: 4096 	 Sm: 0 	 T: memcpy_h2d(1.758947)
F:  2410482----T:  2413087 	 St: 80734000 Sz: 4096 	 Sm: 0 	 T: write_back(1.758947)
F:  2412696----T:  2415301 	 St: 805b8000 Sz: 4096 	 Sm: 0 	 T: memcpy_h2d(1.758947)
F:  2413087----T:  2415692 	 St: 80525000 Sz: 4096 	 Sm: 0 	 T: write_back(1.758947)
F:  2415301----T:  2417906 	 St: 805bc000 Sz: 4096 	 Sm: 0 	 T: memcpy_h2d(1.758947)
F:  2415692----T:  2418297 	 St: 80735000 Sz: 4096 	 Sm: 0 	 T: write_back(1.758947)
F:  2417906----T:  2420511 	 St: 805b2000 Sz: 4096 	 Sm: 0 	 T: memcpy_h2d(1.758947)
F:  2418297----T:  2420902 	 St: 80526000 Sz: 4096 	 Sm: 0 	 T: write_back(1.758947)
F:  2420511----T:  2423116 	 St: 805b3000 Sz: 4096 	 Sm: 0 	 T: memcpy_h2d(1.758947)
F:  2420902----T:  2423507 	 St: 80736000 Sz: 4096 	 Sm: 0 	 T: write_back(1.758947)
F:  2423116----T:  2425721 	 St: 805b4000 Sz: 4096 	 Sm: 0 	 T: memcpy_h2d(1.758947)
F:  2423507----T:  2426112 	 St: 80527000 Sz: 4096 	 Sm: 0 	 T: write_back(1.758947)
F:  2425721----T:  2428326 	 St: 805b7000 Sz: 4096 	 Sm: 0 	 T: memcpy_h2d(1.758947)
F:  2426112----T:  2428717 	 St: 80737000 Sz: 4096 	 Sm: 0 	 T: write_back(1.758947)
F:  2428326----T:  2430931 	 St: 805af000 Sz: 4096 	 Sm: 0 	 T: memcpy_h2d(1.758947)
F:  2428717----T:  2431322 	 St: 80528000 Sz: 4096 	 Sm: 0 	 T: write_back(1.758947)
F:  2430931----T:  2433536 	 St: 805b1000 Sz: 4096 	 Sm: 0 	 T: memcpy_h2d(1.758947)
F:  2431322----T:  2433927 	 St: 80738000 Sz: 4096 	 Sm: 0 	 T: write_back(1.758947)
F:  2433536----T:  2436141 	 St: 805bf000 Sz: 4096 	 Sm: 0 	 T: memcpy_h2d(1.758947)
F:  2433927----T:  2436532 	 St: 80529000 Sz: 4096 	 Sm: 0 	 T: write_back(1.758947)
F:  2436141----T:  2438746 	 St: 805b5000 Sz: 4096 	 Sm: 0 	 T: memcpy_h2d(1.758947)
F:  2436532----T:  2439137 	 St: 80739000 Sz: 4096 	 Sm: 0 	 T: write_back(1.758947)
F:  2438746----T:  2441351 	 St: 805ba000 Sz: 4096 	 Sm: 0 	 T: memcpy_h2d(1.758947)
F:  2439137----T:  2441742 	 St: 8052a000 Sz: 4096 	 Sm: 0 	 T: write_back(1.758947)
F:  2441351----T:  2443956 	 St: 805be000 Sz: 4096 	 Sm: 0 	 T: memcpy_h2d(1.758947)
F:  2441742----T:  2444347 	 St: 8073a000 Sz: 4096 	 Sm: 0 	 T: write_back(1.758947)
F:  2443956----T:  2446561 	 St: 805c1000 Sz: 4096 	 Sm: 0 	 T: memcpy_h2d(1.758947)
F:  2444347----T:  2446952 	 St: 8052b000 Sz: 4096 	 Sm: 0 	 T: write_back(1.758947)
F:  2446561----T:  2449166 	 St: 805c9000 Sz: 4096 	 Sm: 0 	 T: memcpy_h2d(1.758947)
F:  2446952----T:  2449557 	 St: 8073b000 Sz: 4096 	 Sm: 0 	 T: write_back(1.758947)
F:  2449166----T:  2451771 	 St: 805c3000 Sz: 4096 	 Sm: 0 	 T: memcpy_h2d(1.758947)
F:  2449557----T:  2452162 	 St: 8052c000 Sz: 4096 	 Sm: 0 	 T: write_back(1.758947)
F:  2451771----T:  2454376 	 St: 805c8000 Sz: 4096 	 Sm: 0 	 T: memcpy_h2d(1.758947)
F:  2452162----T:  2454767 	 St: 8073c000 Sz: 4096 	 Sm: 0 	 T: write_back(1.758947)
F:  2454376----T:  2456981 	 St: 805c2000 Sz: 4096 	 Sm: 0 	 T: memcpy_h2d(1.758947)
F:  2454767----T:  2457372 	 St: 8052d000 Sz: 4096 	 Sm: 0 	 T: write_back(1.758947)
F:  2456981----T:  2459586 	 St: 805c4000 Sz: 4096 	 Sm: 0 	 T: memcpy_h2d(1.758947)
F:  2457372----T:  2459977 	 St: 8073d000 Sz: 4096 	 Sm: 0 	 T: write_back(1.758947)
F:  2459586----T:  2462191 	 St: 805c6000 Sz: 4096 	 Sm: 0 	 T: memcpy_h2d(1.758947)
F:  2459977----T:  2462582 	 St: 8052e000 Sz: 4096 	 Sm: 0 	 T: write_back(1.758947)
F:  2462191----T:  2464796 	 St: 805c0000 Sz: 4096 	 Sm: 0 	 T: memcpy_h2d(1.758947)
F:  2462582----T:  2465187 	 St: 8073e000 Sz: 4096 	 Sm: 0 	 T: write_back(1.758947)
F:  2464796----T:  2467401 	 St: 805cd000 Sz: 4096 	 Sm: 0 	 T: memcpy_h2d(1.758947)
F:  2465187----T:  2467792 	 St: 8052f000 Sz: 4096 	 Sm: 0 	 T: write_back(1.758947)
F:  2467401----T:  2470006 	 St: 805c5000 Sz: 4096 	 Sm: 0 	 T: memcpy_h2d(1.758947)
F:  2467792----T:  2470397 	 St: 8073f000 Sz: 4096 	 Sm: 0 	 T: write_back(1.758947)
F:  2470006----T:  2472611 	 St: 805d0000 Sz: 4096 	 Sm: 0 	 T: memcpy_h2d(1.758947)
F:  2470397----T:  2473002 	 St: 80530000 Sz: 4096 	 Sm: 0 	 T: write_back(1.758947)
F:  2472611----T:  2475216 	 St: 805ca000 Sz: 4096 	 Sm: 0 	 T: memcpy_h2d(1.758947)
F:  2473002----T:  2475607 	 St: 80740000 Sz: 4096 	 Sm: 0 	 T: write_back(1.758947)
F:  2475216----T:  2477821 	 St: 805c7000 Sz: 4096 	 Sm: 0 	 T: memcpy_h2d(1.758947)
F:  2475607----T:  2478212 	 St: 80531000 Sz: 4096 	 Sm: 0 	 T: write_back(1.758947)
F:  2477821----T:  2480426 	 St: 805cb000 Sz: 4096 	 Sm: 0 	 T: memcpy_h2d(1.758947)
F:  2478212----T:  2480817 	 St: 80741000 Sz: 4096 	 Sm: 0 	 T: write_back(1.758947)
F:  2480426----T:  2483031 	 St: 805cf000 Sz: 4096 	 Sm: 0 	 T: memcpy_h2d(1.758947)
F:  2480817----T:  2483422 	 St: 80532000 Sz: 4096 	 Sm: 0 	 T: write_back(1.758947)
F:  2483031----T:  2485636 	 St: 805ce000 Sz: 4096 	 Sm: 0 	 T: memcpy_h2d(1.758947)
F:  2485636----T:  2488241 	 St: 805cc000 Sz: 4096 	 Sm: 0 	 T: memcpy_h2d(1.758947)
F:  2488241----T:  2490846 	 St: 805d9000 Sz: 4096 	 Sm: 0 	 T: memcpy_h2d(1.758947)
F:  2490846----T:  2493451 	 St: 805d3000 Sz: 4096 	 Sm: 0 	 T: memcpy_h2d(1.758947)
F:  2493451----T:  2496056 	 St: 805d4000 Sz: 4096 	 Sm: 0 	 T: memcpy_h2d(1.758947)
F:  2496056----T:  2498661 	 St: 805d6000 Sz: 4096 	 Sm: 0 	 T: memcpy_h2d(1.758947)
F:  2498661----T:  2501266 	 St: 805d7000 Sz: 4096 	 Sm: 0 	 T: memcpy_h2d(1.758947)
F:  2501266----T:  2503871 	 St: 805d5000 Sz: 4096 	 Sm: 0 	 T: memcpy_h2d(1.758947)
F:  2503871----T:  2506476 	 St: 805d2000 Sz: 4096 	 Sm: 0 	 T: memcpy_h2d(1.758947)
F:  2506476----T:  2509081 	 St: 805d1000 Sz: 4096 	 Sm: 0 	 T: memcpy_h2d(1.758947)
F:  2509081----T:  2511686 	 St: 805da000 Sz: 4096 	 Sm: 0 	 T: memcpy_h2d(1.758947)
F:  2511686----T:  2514291 	 St: 805d8000 Sz: 4096 	 Sm: 0 	 T: memcpy_h2d(1.758947)
F:  2515309----T:  2517914 	 St: 0 Sz: 4096 	 Sm: 0 	 T: device_sync(1.758947)
F:  2515309----T:  2523549 	 St: 0 Sz: 61440 	 Sm: 0 	 T: device_sync(5.563808)
F:  2526154----T:  2528759 	 St: 0 Sz: 4096 	 Sm: 0 	 T: device_sync(1.758947)
F:  2526154----T:  2534394 	 St: 0 Sz: 61440 	 Sm: 0 	 T: device_sync(5.563808)
F:  2536999----T:  2539604 	 St: 0 Sz: 4096 	 Sm: 0 	 T: device_sync(1.758947)
F:  2536999----T:  2552694 	 St: 0 Sz: 126976 	 Sm: 0 	 T: device_sync(10.597569)
F:  2555299----T:  2557904 	 St: 0 Sz: 4096 	 Sm: 0 	 T: device_sync(1.758947)
F:  2555299----T:  2586022 	 St: 0 Sz: 258048 	 Sm: 0 	 T: device_sync(20.744766)
F:  2588627----T:  2591232 	 St: 0 Sz: 4096 	 Sm: 0 	 T: device_sync(1.758947)
F:  2588627----T:  2649463 	 St: 0 Sz: 520192 	 Sm: 0 	 T: device_sync(41.077652)
F:  2652068----T:  2654673 	 St: 0 Sz: 4096 	 Sm: 0 	 T: device_sync(1.758947)
F:  2652068----T:  2690787 	 St: 0 Sz: 327680 	 Sm: 0 	 T: device_sync(26.143822)
Tot_prefetch_time: 0(cycle), 0.000000(us)
Tot_kernel_exec_time: 1902333(cycle), 1284.492188(us)
Tot_kernel_exec_time_and_fault_time: 43022298(cycle), 29049.490234(us)
Tot_memcpy_h2d_time: 1876207(cycle), 1266.851440(us)
Tot_memcpy_d2h_time: 0(cycle), 0.000000(us)
Tot_memcpy_time: 1876207(cycle), 1266.851440(us)
Tot_devicesync_time: 346759(cycle), 234.138412(us)
Tot_writeback_time: 679905(cycle), 459.085083(us)
Tot_memcpy_d2h_sync_wb_time: 1026664(cycle), 693.223511(us)
GPGPU-Sim: *** exit detected ***
