

        *** GPGPU-Sim Simulator Version 3.2.2  [build gpgpu-sim_git-commit-3860d9b353b66e89e1a9ca14f6569fffcf247a15_modified_0] ***


GPGPU-Sim PTX: simulation mode 0 (can change with PTX_SIM_MODE_FUNC environment variable:
               1=functional simulation only, 0=detailed performance simulator)
GPGPU-Sim: Configuration options:

-network_mode                           1 # Interconnection network mode
-inter_config_file   config_fermi_islip.icnt # Interconnection network config file
-gpgpu_ptx_use_cuobjdump                    1 # Use cuobjdump to extract ptx and sass from binaries
-gpgpu_experimental_lib_support                    0 # Try to extract code from cuda libraries [Broken because of unknown cudaGetExportTable]
-gpgpu_ptx_convert_to_ptxplus                    0 # Convert SASS (native ISA) to ptxplus and run ptxplus
-gpgpu_ptx_force_max_capability                   20 # Force maximum compute capability
-gpgpu_ptx_inst_debug_to_file                    0 # Dump executed instructions' debug information to file
-gpgpu_ptx_inst_debug_file       inst_debug.txt # Executed instructions' debug output file
-gpgpu_ptx_inst_debug_thread_uid                    1 # Thread UID for executed instructions' debug output
-gpgpu_simd_model                       1 # 1 = post-dominator
-gpgpu_shader_core_pipeline              2048:32 # shader core pipeline config, i.e., {<nthread>:<warpsize>}
-gpgpu_tex_cache:l1  16:128:24,L:R:m:N:L,F:128:4,128:2 # per-shader L1 texture cache  (READ-ONLY) config  {<nsets>:<bsize>:<assoc>,<rep>:<wr>:<alloc>:<wr_alloc>,<mshr>:<N>:<merge>,<mq>:<rf>}
-gpgpu_const_cache:l1 128:64:2,L:R:f:N:L,A:2:64,4 # per-shader L1 constant memory cache  (READ-ONLY) config  {<nsets>:<bsize>:<assoc>,<rep>:<wr>:<alloc>:<wr_alloc>,<mshr>:<N>:<merge>,<mq>} 
-gpgpu_cache:il1     8:128:4,L:R:f:N:L,A:2:48,4 # shader L1 instruction cache config  {<nsets>:<bsize>:<assoc>,<rep>:<wr>:<alloc>:<wr_alloc>,<mshr>:<N>:<merge>,<mq>} 
-gpgpu_cache:dl1     64:128:6,L:L:m:N:H,A:128:8,8 # per-shader L1 data cache config  {<nsets>:<bsize>:<assoc>,<rep>:<wr>:<alloc>:<wr_alloc>,<mshr>:<N>:<merge>,<mq> | none}
-gpgpu_cache:dl1PrefL1                 none # per-shader L1 data cache config  {<nsets>:<bsize>:<assoc>,<rep>:<wr>:<alloc>:<wr_alloc>,<mshr>:<N>:<merge>,<mq> | none}
-gpgpu_cache:dl1PrefShared                 none # per-shader L1 data cache config  {<nsets>:<bsize>:<assoc>,<rep>:<wr>:<alloc>:<wr_alloc>,<mshr>:<N>:<merge>,<mq> | none}
-gmem_skip_L1D                          1 # global memory access skip L1D cache (implements -Xptxas -dlcm=cg, default=no skip)
-gpgpu_perfect_mem                      0 # enable perfect memory mode (no cache miss)
-n_regfile_gating_group                    4 # group of lanes that should be read/written together)
-gpgpu_clock_gated_reg_file                    0 # enable clock gated reg file for power calculations
-gpgpu_clock_gated_lanes                    0 # enable clock gated lanes for power calculations
-gpgpu_shader_registers                65536 # Number of registers per shader core. Limits number of concurrent CTAs. (default 8192)
-gpgpu_shader_cta                      32 # Maximum number of concurrent CTAs in shader (default 8)
-gpgpu_num_cta_barriers                   16 # Maximum number of named barriers per CTA (default 16)
-gpgpu_n_clusters                      28 # number of processing clusters
-gpgpu_n_cores_per_cluster                    1 # number of simd cores per cluster
-gpgpu_n_cluster_ejection_buffer_size                    8 # number of packets in ejection buffer
-gpgpu_n_ldst_response_buffer_size                    2 # number of response packets in ld/st unit ejection buffer
-gpgpu_shmem_size                   16384 # Size of shared memory per shader core (default 16kB)
-gpgpu_shmem_size                   98304 # Size of shared memory per shader core (default 16kB)
-gpgpu_shmem_size_PrefL1                16384 # Size of shared memory per shader core (default 16kB)
-gpgpu_shmem_size_PrefShared                16384 # Size of shared memory per shader core (default 16kB)
-gpgpu_shmem_num_banks                   32 # Number of banks in the shared memory in each shader core (default 16)
-gpgpu_shmem_limited_broadcast                    0 # Limit shared memory to do one broadcast per cycle (default on)
-gpgpu_shmem_warp_parts                    1 # Number of portions a warp is divided into for shared memory bank conflict check 
-gpgpu_warpdistro_shader                   -1 # Specify which shader core to collect the warp size distribution from
-gpgpu_warp_issue_shader                    0 # Specify which shader core to collect the warp issue distribution from
-gpgpu_local_mem_map                    1 # Mapping from local memory space address to simulated GPU physical address space (default = enabled)
-gpgpu_num_reg_banks                   32 # Number of register banks (default = 8)
-gpgpu_reg_bank_use_warp_id                    0 # Use warp ID in mapping registers to banks (default = off)
-gpgpu_operand_collector_num_units_sp                   20 # number of collector units (default = 4)
-gpgpu_operand_collector_num_units_sfu                    4 # number of collector units (default = 4)
-gpgpu_operand_collector_num_units_mem                    8 # number of collector units (default = 2)
-gpgpu_operand_collector_num_units_gen                    0 # number of collector units (default = 0)
-gpgpu_operand_collector_num_in_ports_sp                    4 # number of collector unit in ports (default = 1)
-gpgpu_operand_collector_num_in_ports_sfu                    1 # number of collector unit in ports (default = 1)
-gpgpu_operand_collector_num_in_ports_mem                    1 # number of collector unit in ports (default = 1)
-gpgpu_operand_collector_num_in_ports_gen                    0 # number of collector unit in ports (default = 0)
-gpgpu_operand_collector_num_out_ports_sp                    4 # number of collector unit in ports (default = 1)
-gpgpu_operand_collector_num_out_ports_sfu                    1 # number of collector unit in ports (default = 1)
-gpgpu_operand_collector_num_out_ports_mem                    1 # number of collector unit in ports (default = 1)
-gpgpu_operand_collector_num_out_ports_gen                    0 # number of collector unit in ports (default = 0)
-gpgpu_coalesce_arch                   13 # Coalescing arch (default = 13, anything else is off for now)
-gpgpu_num_sched_per_core                    2 # Number of warp schedulers per core
-gpgpu_max_insn_issue_per_warp                    2 # Max number of instructions that can be issued per warp in one cycle by scheduler
-gpgpu_simt_core_sim_order                    1 # Select the simulation order of cores in a cluster (0=Fix, 1=Round-Robin)
-gpgpu_pipeline_widths        4,1,1,4,1,1,6 # Pipeline widths ID_OC_SP,ID_OC_SFU,ID_OC_MEM,OC_EX_SP,OC_EX_SFU,OC_EX_MEM,EX_WB
-gpgpu_num_sp_units                     4 # Number of SP units (default=1)
-gpgpu_num_sfu_units                    1 # Number of SF units (default=1)
-gpgpu_num_mem_units                    1 # Number if ldst units (default=1) WARNING: not hooked up to anything
-gpgpu_scheduler                      gto # Scheduler configuration: < lrr | gto | two_level_active > If two_level_active:<num_active_warps>:<inner_prioritization>:<outer_prioritization>For complete list of prioritization values see shader.h enum scheduler_prioritization_typeDefault: gto
-gpgpu_concurrent_kernel_sm                    0 # Support concurrent kernels on a SM (default = disabled)
-tlb_size                            4096 # Number of tlb entries per SM.
-gpgpu_dram_scheduler                    1 # 0 = fifo, 1 = FR-FCFS (defaul)
-gpgpu_dram_partition_queues              8:8:8:8 # i2$:$2d:d2$:$2i
-l2_ideal                               0 # Use a ideal L2 cache that always hit
-gpgpu_cache:dl2     64:128:16,L:B:m:W:L,A:1024:1024,4:0,32 # unified banked L2 data cache config  {<nsets>:<bsize>:<assoc>,<rep>:<wr>:<alloc>:<wr_alloc>,<mshr>:<N>:<merge>,<mq>}
-gpgpu_cache:dl2_texture_only                    0 # L2 cache used for texture only
-gpgpu_n_mem                           11 # number of memory modules (e.g. memory controllers) in gpu
-gpgpu_n_sub_partition_per_mchannel                    2 # number of memory subpartition in each memory module
-gpgpu_n_mem_per_ctrlr                    1 # number of memory chips per memory controller
-gpgpu_memlatency_stat                   14 # track and display latency statistics 0x2 enables MC, 0x4 enables queue logs
-gpgpu_frfcfs_dram_sched_queue_size                   64 # 0 = unlimited (default); # entries per chip
-gpgpu_dram_return_queue_size                  116 # 0 = unlimited (default); # entries per chip
-gpgpu_dram_buswidth                    4 # default = 4 bytes (8 bytes per cycle at DDR)
-gpgpu_dram_burst_length                    8 # Burst length of each DRAM request (default = 4 data bus cycle)
-dram_data_command_freq_ratio                    4 # Frequency ratio between DRAM data bus and command bus (default = 2 times, i.e. DDR)
-gpgpu_dram_timing_opt nbk=16:CCD=2:RRD=6:RCD=12:RAS=28:RP=12:RC=40: CL=12:WL=4:CDLR=5:WR=12:nbkgrp=1:CCDL=0:RTPL=0 # DRAM timing parameters = {nbk:tCCD:tRRD:tRCD:tRAS:tRP:tRC:CL:WL:tCDLR:tWR:nbkgrp:tCCDL:tRTPL}
-rop_latency                          120 # ROP queue latency (default 85)
-dram_latency                         100 # DRAM latency (default 30)
-gpgpu_mem_addr_mapping dramid@8;00000000.00000000.00000000.00000000.0000RRRR.RRRRRRRR.RBBBCCCC.BCCSSSSS # mapping memory address to dram model {dramid@<start bit>;<memory address map>}
-gpgpu_mem_addr_test                    0 # run sweep test to check address mapping for aliased address
-gpgpu_mem_address_mask                    1 # 0 = old addressing mask, 1 = new addressing mask, 2 = new add. mask + flipped bank sel and chip sel bits
-gpuwattch_xml_file  gpuwattch_geforcegtx1080ti.xml # GPUWattch XML file
-power_simulation_enabled                    1 # Turn on power simulator (1=On, 0=Off)
-power_per_cycle_dump                    0 # Dump detailed power output each cycle
-power_trace_enabled                    0 # produce a file for the power trace (1=On, 0=Off)
-power_trace_zlevel                     6 # Compression level of the power trace output log (0=no comp, 9=highest)
-steady_power_levels_enabled                    0 # produce a file for the steady power levels (1=On, 0=Off)
-steady_state_definition                  8:4 # allowed deviation:number of samples
-gpgpu_max_cycle                        0 # terminates gpu simulation early (0 = no limit)
-gpgpu_max_insn                         0 # terminates gpu simulation early (0 = no limit)
-gpgpu_max_cta                          0 # terminates gpu simulation early (0 = no limit)
-gpgpu_runtime_stat                   500 # display runtime statistics such as dram utilization {<freq>:<flag>}
-liveness_message_freq                    1 # Minimum number of seconds between simulation liveness messages (0 = always print)
-gpgpu_flush_l1_cache                    0 # Flush L1 cache at the end of each kernel call
-gpgpu_flush_l2_cache                    0 # Flush L2 cache at the end of each kernel call
-gpgpu_deadlock_detect                    0 # Stop the simulation at deadlock (1=on (default), 0=off)
-gpgpu_ptx_instruction_classification                    0 # if enabled will classify ptx instruction types per kernel (Max 255 kernels now)
-gpgpu_ptx_sim_mode                     0 # Select between Performance (default) or Functional simulation (1)
-gpgpu_clock_domains 1481.0:2962.0:1481.0:2750.0 # Clock Domain Frequencies in MhZ {<Core Clock>:<ICNT Clock>:<L2 Clock>:<DRAM Clock>}
-gpgpu_max_concurrent_kernel                    8 # maximum kernels that can run concurrently on GPU
-gpgpu_cflog_interval                    0 # Interval between each snapshot in control flow logger
-visualizer_enabled                     0 # Turn on visualizer output (1=On, 0=Off)
-visualizer_outputfile                 NULL # Specifies the output log file for visualizer
-visualizer_zlevel                      6 # Compression level of the visualizer output log (0=no comp, 9=highest)
-trace_enabled                          0 # Turn on traces
-trace_components                    none # comma seperated list of traces to enable. Complete list found in trace_streams.tup. Default none
-trace_sampling_core                    0 # The core which is printed using CORE_DPRINTF. Default 0
-trace_sampling_memory_partition                   -1 # The memory partition which is printed using MEMPART_DPRINTF. Default -1 (i.e. all)
-gddr_size                            1GB # Size of GDDR in MB/GB.(GLOBAL_HEAP_START, GLOBAL_HEAP_START + gddr_size) would be used for unmanged memory, (GLOBAL_HEAP_START + gddr_size, GLOBAL_HEAP_START + gddr_size*2) would be used for managed memory. 
-page_table_walk_latency                  100 # Average page table walk latency (in core cycle).
-eviction_policy                        0 # Select page eviction policy
-reserve_accessed_page_percent                    0 # Percentage of accessed pages reserved from eviction in hope that they will be accessed in next iteration.
-percentage_of_free_page_buffer                    0 # Percentage of free page buffer to trigger the page eviction.
-page_size                            4KB # GDDR page size, only 4KB/2MB avaliable.
-pcie_bandwith                   16.0GB/s # PCI-e bandwith per direction, in GB/s.
-enable_nvlink                          0 # Enable nvlink 2.0, 150.0GB/s
-enable_rdma                            0 # Enable remote direct memory access
-migrate_threshold                     10 # Access counter threshold for migrating the page from cpu to gpu
-sim_prof_enable                        1 # Enable gpgpu-sim profiler
-hardware_prefetch                      2 # Select gpgpu-sim hardware prefetcher
-hwprefetch_oversub                     0 # Select gpgpu-sim hardware prefetcher under over-subscription
-page_fault_latency                 66645 # Average fault latency (in core cycle).
-enable_accurate_simulation                    0 # Enable page fault functional simulation.
-enable_ptx_file_line_stats                    1 # Turn on PTX source line statistic profiling. (1 = On)
-ptx_line_stats_filename gpgpu_inst_stats.txt # Output file for PTX source line statistics.
-gpgpu_kernel_launch_latency               222150 # Kernel launch latency in cycles. Default: 0
-gpgpu_cdp_enabled                      0 # Turn on CDP
-save_embedded_ptx                      0 # saves ptx files embedded in binary as <n>.ptx
-keep                                   0 # keep intermediate files created by GPGPU-Sim when interfacing with external programs
-gpgpu_ptx_save_converted_ptxplus                    0 # Saved converted ptxplus to a file
-ptx_opcode_latency_int         4,13,4,5,145 # Opcode latencies for integers <ADD,MAX,MUL,MAD,DIV>Default 1,1,19,25,145
-ptx_opcode_latency_fp          4,13,4,5,39 # Opcode latencies for single precision floating points <ADD,MAX,MUL,MAD,DIV>Default 1,1,1,1,30
-ptx_opcode_latency_dp         8,19,8,8,330 # Opcode latencies for double precision floating points <ADD,MAX,MUL,MAD,DIV>Default 8,8,8,8,335
-ptx_opcode_initiation_int            1,2,2,2,8 # Opcode initiation intervals for integers <ADD,MAX,MUL,MAD,DIV>Default 1,1,4,4,32
-ptx_opcode_initiation_fp            1,2,1,1,4 # Opcode initiation intervals for single precision floating points <ADD,MAX,MUL,MAD,DIV>Default 1,1,1,1,5
-ptx_opcode_initiation_dp          1,2,1,1,130 # Opcode initiation intervals for double precision floating points <ADD,MAX,MUL,MAD,DIV>Default 8,8,8,8,130
-cdp_latency         7200,8000,100,12000,1600 # CDP API latency <cudaStreamCreateWithFlags, cudaGetParameterBufferV2_init_perWarp, cudaGetParameterBufferV2_perKernel, cudaLaunchDeviceV2_init_perWarp, cudaLaunchDevicV2_perKernel>Default 7200,8000,100,12000,1600
DRAM Timing Options:
nbk                                    16 # number of banks
CCD                                     2 # column to column delay
RRD                                     6 # minimal delay between activation of rows in different banks
RCD                                    12 # row to column delay
RAS                                    28 # time needed to activate row
RP                                     12 # time needed to precharge (deactivate) row
RC                                     40 # row cycle time
CDLR                                    5 # switching from write to read (changes tWTR)
WR                                     12 # last data-in to row precharge
CL                                     12 # CAS latency
WL                                      4 # Write latency
nbkgrp                                  1 # number of bank groups
CCDL                                    0 # column to column delay between accesses to different bank groups
RTPL                                    0 # read to precharge delay between accesses to different bank groups
Total number of memory sub partition = 22
addr_dec_mask[CHIP]  = 0000000000000000 	high:64 low:0
addr_dec_mask[BK]    = 0000000000007080 	high:15 low:7
addr_dec_mask[ROW]   = 000000000fff8000 	high:28 low:15
addr_dec_mask[COL]   = 0000000000000f7f 	high:12 low:0
addr_dec_mask[BURST] = 000000000000001f 	high:5 low:0
sub_partition_id_mask = 0000000000000080
GPGPU-Sim uArch: clock freqs: 1481000000.000000:2962000000.000000:1481000000.000000:2750000000.000000
GPGPU-Sim uArch: clock periods: 0.00000000067521944632:0.00000000033760972316:0.00000000067521944632:0.00000000036363636364
*** Initializing Memory Statistics ***
GPGPU-Sim uArch: interconnect node map (shaderID+MemID to icntID)
GPGPU-Sim uArch: Memory nodes ID start from index: 28
GPGPU-Sim uArch:    0   1   2   3   4   5   6
GPGPU-Sim uArch:    7   8   9  10  11  12  13
GPGPU-Sim uArch:   14  15  16  17  18  19  20
GPGPU-Sim uArch:   21  22  23  24  25  26  27
GPGPU-Sim uArch:   28  29  30  31  32  33  34
GPGPU-Sim uArch:   35  36  37  38  39  40  41
GPGPU-Sim uArch:   42  43  44  45  46  47  48
GPGPU-Sim uArch:   49
GPGPU-Sim uArch: interconnect node reverse map (icntID to shaderID+MemID)
GPGPU-Sim uArch: Memory nodes start from ID: 28
GPGPU-Sim uArch:    0   1   2   3   4   5   6
GPGPU-Sim uArch:    7   8   9  10  11  12  13
GPGPU-Sim uArch:   14  15  16  17  18  19  20
GPGPU-Sim uArch:   21  22  23  24  25  26  27
GPGPU-Sim uArch:   28  29  30  31  32  33  34
GPGPU-Sim uArch:   35  36  37  38  39  40  41
GPGPU-Sim uArch:   42  43  44  45  46  47  48
GPGPU-Sim uArch:   49
ebb70b8aa687421b721eea3d897aeeba  /home/gpuser/Desktop/gpgpu-sim_UVMSmart/benchmarks/Managed/bfs/bfs
GPGPU-Sim uArch: performance model initialization complete.
GPGPU-Sim PTX: __cudaRegisterFatBinary, fat_cubin_handle = 1, filename=default
self exe links to: /home/gpuser/Desktop/gpgpu-sim_UVMSmart/benchmarks/Managed/bfs/bfs
Running md5sum using "md5sum /home/gpuser/Desktop/gpgpu-sim_UVMSmart/benchmarks/Managed/bfs/bfs "
Parsing file _cuobjdump_complete_output_vRk0pO
######### cuobjdump parser ########
## Adding new section ELF
Adding arch: sm_20
Adding identifier: default
## Adding new section ELF
Adding arch: sm_20
Adding identifier: default
## Adding new section PTX
Adding ptx filename: _cuobjdump_1.ptx
Adding arch: sm_20
Adding identifier: default
Done parsing!!!
GPGPU-Sim PTX: __cudaRegisterFunction _Z7Kernel2PbS_S_S_i : hostFun 0x0x401649, fat_cubin_handle = 1
GPGPU-Sim PTX: instruction assembly for function '_Z6KernelP4NodePiPbS2_S2_S1_i'...   done.
GPGPU-Sim PTX: finding reconvergence points for '_Z6KernelP4NodePiPbS2_S2_S1_i'...
GPGPU-Sim PTX: Finding dominators for '_Z6KernelP4NodePiPbS2_S2_S1_i'...
GPGPU-Sim PTX: Finding immediate dominators for '_Z6KernelP4NodePiPbS2_S2_S1_i'...
GPGPU-Sim PTX: Finding postdominators for '_Z6KernelP4NodePiPbS2_S2_S1_i'...
GPGPU-Sim PTX: Finding immediate postdominators for '_Z6KernelP4NodePiPbS2_S2_S1_i'...
GPGPU-Sim PTX: pre-decoding instructions for '_Z6KernelP4NodePiPbS2_S2_S1_i'...
GPGPU-Sim PTX: reconvergence points for _Z6KernelP4NodePiPbS2_S2_S1_i...
GPGPU-Sim PTX:  1 (potential) branch divergence @  PC=0x060 (_1.ptx:42) @%p1 bra BB0_7;
GPGPU-Sim PTX:    immediate post dominator      @  PC=0x1e8 (_1.ptx:101) ret;
GPGPU-Sim PTX:  2 (potential) branch divergence @  PC=0x090 (_1.ptx:49) @%p2 bra BB0_7;
GPGPU-Sim PTX:    immediate post dominator      @  PC=0x1e8 (_1.ptx:101) ret;
GPGPU-Sim PTX:  3 (potential) branch divergence @  PC=0x0d8 (_1.ptx:59) @%p3 bra BB0_7;
GPGPU-Sim PTX:    immediate post dominator      @  PC=0x1e8 (_1.ptx:101) ret;
GPGPU-Sim PTX:  4 (potential) branch divergence @  PC=0x160 (_1.ptx:79) @%p4 bra BB0_6;
GPGPU-Sim PTX:    immediate post dominator      @  PC=0x1b8 (_1.ptx:93) mov.u32 %r24, %r25;
GPGPU-Sim PTX:  5 (potential) branch divergence @  PC=0x1e0 (_1.ptx:98) @%p5 bra BB0_4;
GPGPU-Sim PTX:    immediate post dominator      @  PC=0x1e8 (_1.ptx:101) ret;
GPGPU-Sim PTX: ... end of reconvergence points for _Z6KernelP4NodePiPbS2_S2_S1_i
GPGPU-Sim PTX: ... done pre-decoding instructions for '_Z6KernelP4NodePiPbS2_S2_S1_i'.
GPGPU-Sim PTX: instruction assembly for function '_Z7Kernel2PbS_S_S_i'...   done.
GPGPU-Sim PTX: finding reconvergence points for '_Z7Kernel2PbS_S_S_i'...
GPGPU-Sim PTX: Finding dominators for '_Z7Kernel2PbS_S_S_i'...
GPGPU-Sim PTX: Finding immediate dominators for '_Z7Kernel2PbS_S_S_i'...
GPGPU-Sim PTX: Finding postdominators for '_Z7Kernel2PbS_S_S_i'...
GPGPU-Sim PTX: Finding immediate postdominators for '_Z7Kernel2PbS_S_S_i'...
GPGPU-Sim PTX: pre-decoding instructions for '_Z7Kernel2PbS_S_S_i'...
GPGPU-Sim PTX: reconvergence points for _Z7Kernel2PbS_S_S_i...
GPGPU-Sim PTX:  1 (potential) branch divergence @  PC=0x240 (_1.ptx:129) @%p1 bra BB1_3;
GPGPU-Sim PTX:    immediate post dominator      @  PC=0x2d0 (_1.ptx:151) ret;
GPGPU-Sim PTX:  2 (potential) branch divergence @  PC=0x270 (_1.ptx:136) @%p2 bra BB1_3;
GPGPU-Sim PTX:    immediate post dominator      @  PC=0x2d0 (_1.ptx:151) ret;
GPGPU-Sim PTX: ... end of reconvergence points for _Z7Kernel2PbS_S_S_i
GPGPU-Sim PTX: ... done pre-decoding instructions for '_Z7Kernel2PbS_S_S_i'.
GPGPU-Sim PTX: finished parsing EMBEDDED .ptx file _1.ptx
Adding _cuobjdump_1.ptx with cubin handle 1
GPGPU-Sim PTX: extracting embedded .ptx to temporary file "_ptx_Z9PEgQ"
Running: cat _ptx_Z9PEgQ | sed 's/.version 1.5/.version 1.4/' | sed 's/, texmode_independent//' | sed 's/\(\.extern \.const\[1\] .b8 \w\+\)\[\]/\1\[1\]/' | sed 's/const\[.\]/const\[0\]/g' > _ptx2_yDkk7R
GPGPU-Sim PTX: generating ptxinfo using "$CUDA_INSTALL_PATH/bin/ptxas --gpu-name=sm_20 -v _ptx2_yDkk7R --output-file  /dev/null 2> _ptx_Z9PEgQinfo"
GPGPU-Sim PTX: Kernel '_Z7Kernel2PbS_S_S_i' : regs=12, lmem=0, smem=0, cmem=68
GPGPU-Sim PTX: Kernel '_Z6KernelP4NodePiPbS2_S2_S1_i' : regs=15, lmem=0, smem=0, cmem=84
GPGPU-Sim PTX: removing ptxinfo using "rm -f _ptx_Z9PEgQ _ptx2_yDkk7R _ptx_Z9PEgQinfo"
GPGPU-Sim PTX: loading globals with explicit initializers... 
GPGPU-Sim PTX: finished loading globals (0 bytes total).
GPGPU-Sim PTX: loading constants with explicit initializers...  done.
GPGPU-Sim PTX: __cudaRegisterFunction _Z6KernelP4NodePiPbS2_S2_S1_i : hostFun 0x0x401519, fat_cubin_handle = 1
Reading File
Read File
Copied Everything to GPU memory
Start traversing the tree

GPGPU-Sim PTX: cudaLaunch for 0x0x401519 (mode=performance simulation) on stream 0
GPGPU-Sim PTX: pushing kernel '_Z6KernelP4NodePiPbS2_S2_S1_i' to stream 0, gridDim= (128,1,1) blockDim = (512,1,1) 
GPGPU-Sim uArch: Shader 1 bind to kernel 1 '_Z6KernelP4NodePiPbS2_S2_S1_i'
GPGPU-Sim uArch: CTA/core = 4, limited by: threads
GPGPU-Sim uArch: Shader 2 bind to kernel 1 '_Z6KernelP4NodePiPbS2_S2_S1_i'
GPGPU-Sim uArch: Shader 3 bind to kernel 1 '_Z6KernelP4NodePiPbS2_S2_S1_i'
GPGPU-Sim uArch: Shader 4 bind to kernel 1 '_Z6KernelP4NodePiPbS2_S2_S1_i'
GPGPU-Sim uArch: Shader 5 bind to kernel 1 '_Z6KernelP4NodePiPbS2_S2_S1_i'
GPGPU-Sim uArch: Shader 6 bind to kernel 1 '_Z6KernelP4NodePiPbS2_S2_S1_i'
GPGPU-Sim uArch: Shader 7 bind to kernel 1 '_Z6KernelP4NodePiPbS2_S2_S1_i'
GPGPU-Sim uArch: Shader 8 bind to kernel 1 '_Z6KernelP4NodePiPbS2_S2_S1_i'
GPGPU-Sim uArch: Shader 9 bind to kernel 1 '_Z6KernelP4NodePiPbS2_S2_S1_i'
GPGPU-Sim uArch: Shader 10 bind to kernel 1 '_Z6KernelP4NodePiPbS2_S2_S1_i'
GPGPU-Sim uArch: Shader 11 bind to kernel 1 '_Z6KernelP4NodePiPbS2_S2_S1_i'
GPGPU-Sim uArch: Shader 12 bind to kernel 1 '_Z6KernelP4NodePiPbS2_S2_S1_i'
GPGPU-Sim uArch: Shader 13 bind to kernel 1 '_Z6KernelP4NodePiPbS2_S2_S1_i'
GPGPU-Sim uArch: Shader 14 bind to kernel 1 '_Z6KernelP4NodePiPbS2_S2_S1_i'
GPGPU-Sim uArch: Shader 15 bind to kernel 1 '_Z6KernelP4NodePiPbS2_S2_S1_i'
GPGPU-Sim uArch: Shader 16 bind to kernel 1 '_Z6KernelP4NodePiPbS2_S2_S1_i'
GPGPU-Sim uArch: Shader 17 bind to kernel 1 '_Z6KernelP4NodePiPbS2_S2_S1_i'
GPGPU-Sim uArch: Shader 18 bind to kernel 1 '_Z6KernelP4NodePiPbS2_S2_S1_i'
GPGPU-Sim uArch: Shader 19 bind to kernel 1 '_Z6KernelP4NodePiPbS2_S2_S1_i'
GPGPU-Sim uArch: Shader 20 bind to kernel 1 '_Z6KernelP4NodePiPbS2_S2_S1_i'
GPGPU-Sim uArch: Shader 21 bind to kernel 1 '_Z6KernelP4NodePiPbS2_S2_S1_i'
GPGPU-Sim uArch: Shader 22 bind to kernel 1 '_Z6KernelP4NodePiPbS2_S2_S1_i'
GPGPU-Sim uArch: Shader 23 bind to kernel 1 '_Z6KernelP4NodePiPbS2_S2_S1_i'
GPGPU-Sim uArch: Shader 24 bind to kernel 1 '_Z6KernelP4NodePiPbS2_S2_S1_i'
GPGPU-Sim uArch: Shader 25 bind to kernel 1 '_Z6KernelP4NodePiPbS2_S2_S1_i'
GPGPU-Sim uArch: Shader 26 bind to kernel 1 '_Z6KernelP4NodePiPbS2_S2_S1_i'
GPGPU-Sim uArch: Shader 27 bind to kernel 1 '_Z6KernelP4NodePiPbS2_S2_S1_i'
GPGPU-Sim uArch: Shader 0 bind to kernel 1 '_Z6KernelP4NodePiPbS2_S2_S1_i'
Destroy streams for kernel 1: size 0
kernel_name = _Z6KernelP4NodePiPbS2_S2_S1_i 
kernel_launch_uid = 1 
gpu_sim_cycle = 91349
gpu_sim_insn = 1245376
gpu_ipc =      13.6332
gpu_tot_sim_cycle = 316035
gpu_tot_sim_insn = 1245376
gpu_tot_ipc =       3.9406
gpu_tot_issued_cta = 128
max_total_param_size = 0
gpu_stall_dramfull = 0
gpu_stall_icnt2sh    = 2892
partiton_reqs_in_parallel = 2009678
partiton_reqs_in_parallel_total    = 0
partiton_level_parallism =      22.0000
partiton_level_parallism_total  =       6.3590
partiton_reqs_in_parallel_util = 2009678
partiton_reqs_in_parallel_util_total    = 0
gpu_sim_cycle_parition_util = 91349
gpu_tot_sim_cycle_parition_util    = 0
partiton_level_parallism_util =      22.0000
partiton_level_parallism_util_total  =      22.0000
partiton_replys_in_parallel = 2220
partiton_replys_in_parallel_total    = 0
L2_BW  =       2.3035 GB/Sec
L2_BW_total  =       0.6658 GB/Sec
gpu_total_sim_rate=30375

========= Core cache stats =========
L1I_cache:
	L1I_total_cache_accesses = 22632
	L1I_total_cache_misses = 2778
	L1I_total_cache_miss_rate = 0.1227
	L1I_total_cache_pending_hits = 0
	L1I_total_cache_reservation_fails = 6846
L1D_cache:
	L1D_cache_core[0]: Access = 0, Miss = 0, Miss_rate = -nan, Pending_hits = 0, Reservation_fails = 0
	L1D_cache_core[1]: Access = 0, Miss = 0, Miss_rate = -nan, Pending_hits = 0, Reservation_fails = 0
	L1D_cache_core[2]: Access = 0, Miss = 0, Miss_rate = -nan, Pending_hits = 0, Reservation_fails = 0
	L1D_cache_core[3]: Access = 0, Miss = 0, Miss_rate = -nan, Pending_hits = 0, Reservation_fails = 0
	L1D_cache_core[4]: Access = 0, Miss = 0, Miss_rate = -nan, Pending_hits = 0, Reservation_fails = 0
	L1D_cache_core[5]: Access = 0, Miss = 0, Miss_rate = -nan, Pending_hits = 0, Reservation_fails = 0
	L1D_cache_core[6]: Access = 0, Miss = 0, Miss_rate = -nan, Pending_hits = 0, Reservation_fails = 0
	L1D_cache_core[7]: Access = 0, Miss = 0, Miss_rate = -nan, Pending_hits = 0, Reservation_fails = 0
	L1D_cache_core[8]: Access = 0, Miss = 0, Miss_rate = -nan, Pending_hits = 0, Reservation_fails = 0
	L1D_cache_core[9]: Access = 0, Miss = 0, Miss_rate = -nan, Pending_hits = 0, Reservation_fails = 0
	L1D_cache_core[10]: Access = 0, Miss = 0, Miss_rate = -nan, Pending_hits = 0, Reservation_fails = 0
	L1D_cache_core[11]: Access = 0, Miss = 0, Miss_rate = -nan, Pending_hits = 0, Reservation_fails = 0
	L1D_cache_core[12]: Access = 0, Miss = 0, Miss_rate = -nan, Pending_hits = 0, Reservation_fails = 0
	L1D_cache_core[13]: Access = 0, Miss = 0, Miss_rate = -nan, Pending_hits = 0, Reservation_fails = 0
	L1D_cache_core[14]: Access = 0, Miss = 0, Miss_rate = -nan, Pending_hits = 0, Reservation_fails = 0
	L1D_cache_core[15]: Access = 0, Miss = 0, Miss_rate = -nan, Pending_hits = 0, Reservation_fails = 0
	L1D_cache_core[16]: Access = 0, Miss = 0, Miss_rate = -nan, Pending_hits = 0, Reservation_fails = 0
	L1D_cache_core[17]: Access = 0, Miss = 0, Miss_rate = -nan, Pending_hits = 0, Reservation_fails = 0
	L1D_cache_core[18]: Access = 0, Miss = 0, Miss_rate = -nan, Pending_hits = 0, Reservation_fails = 0
	L1D_cache_core[19]: Access = 0, Miss = 0, Miss_rate = -nan, Pending_hits = 0, Reservation_fails = 0
	L1D_cache_core[20]: Access = 0, Miss = 0, Miss_rate = -nan, Pending_hits = 0, Reservation_fails = 0
	L1D_cache_core[21]: Access = 0, Miss = 0, Miss_rate = -nan, Pending_hits = 0, Reservation_fails = 0
	L1D_cache_core[22]: Access = 0, Miss = 0, Miss_rate = -nan, Pending_hits = 0, Reservation_fails = 0
	L1D_cache_core[23]: Access = 0, Miss = 0, Miss_rate = -nan, Pending_hits = 0, Reservation_fails = 0
	L1D_cache_core[24]: Access = 0, Miss = 0, Miss_rate = -nan, Pending_hits = 0, Reservation_fails = 0
	L1D_cache_core[25]: Access = 0, Miss = 0, Miss_rate = -nan, Pending_hits = 0, Reservation_fails = 0
	L1D_cache_core[26]: Access = 0, Miss = 0, Miss_rate = -nan, Pending_hits = 0, Reservation_fails = 0
	L1D_cache_core[27]: Access = 0, Miss = 0, Miss_rate = -nan, Pending_hits = 0, Reservation_fails = 0
	L1D_total_cache_accesses = 0
	L1D_total_cache_misses = 0
	L1D_total_cache_pending_hits = 0
	L1D_total_cache_reservation_fails = 0
	L1D_cache_data_port_util = 0.000
	L1D_cache_fill_port_util = 0.000
L1C_cache:
	L1C_total_cache_accesses = 14336
	L1C_total_cache_misses = 1792
	L1C_total_cache_miss_rate = 0.1250
	L1C_total_cache_pending_hits = 0
	L1C_total_cache_reservation_fails = 4886
L1T_cache:
	L1T_total_cache_accesses = 0
	L1T_total_cache_misses = 0
	L1T_total_cache_pending_hits = 0
	L1T_total_cache_reservation_fails = 0

Total_core_cache_stats:
	Total_core_cache_stats_breakdown[GLOBAL_ACC_R][HIT] = 0
	Total_core_cache_stats_breakdown[GLOBAL_ACC_R][HIT_RESERVED] = 0
	Total_core_cache_stats_breakdown[GLOBAL_ACC_R][MISS] = 0
	Total_core_cache_stats_breakdown[GLOBAL_ACC_R][RESERVATION_FAIL] = 0
	Total_core_cache_stats_breakdown[LOCAL_ACC_R][HIT] = 0
	Total_core_cache_stats_breakdown[LOCAL_ACC_R][HIT_RESERVED] = 0
	Total_core_cache_stats_breakdown[LOCAL_ACC_R][MISS] = 0
	Total_core_cache_stats_breakdown[LOCAL_ACC_R][RESERVATION_FAIL] = 0
	Total_core_cache_stats_breakdown[CONST_ACC_R][HIT] = 12544
	Total_core_cache_stats_breakdown[CONST_ACC_R][HIT_RESERVED] = 0
	Total_core_cache_stats_breakdown[CONST_ACC_R][MISS] = 1792
	Total_core_cache_stats_breakdown[CONST_ACC_R][RESERVATION_FAIL] = 4886
	Total_core_cache_stats_breakdown[TEXTURE_ACC_R][HIT] = 0
	Total_core_cache_stats_breakdown[TEXTURE_ACC_R][HIT_RESERVED] = 0
	Total_core_cache_stats_breakdown[TEXTURE_ACC_R][MISS] = 0
	Total_core_cache_stats_breakdown[TEXTURE_ACC_R][RESERVATION_FAIL] = 0
	Total_core_cache_stats_breakdown[GLOBAL_ACC_W][HIT] = 0
	Total_core_cache_stats_breakdown[GLOBAL_ACC_W][HIT_RESERVED] = 0
	Total_core_cache_stats_breakdown[GLOBAL_ACC_W][MISS] = 0
	Total_core_cache_stats_breakdown[GLOBAL_ACC_W][RESERVATION_FAIL] = 0
	Total_core_cache_stats_breakdown[LOCAL_ACC_W][HIT] = 0
	Total_core_cache_stats_breakdown[LOCAL_ACC_W][HIT_RESERVED] = 0
	Total_core_cache_stats_breakdown[LOCAL_ACC_W][MISS] = 0
	Total_core_cache_stats_breakdown[LOCAL_ACC_W][RESERVATION_FAIL] = 0
	Total_core_cache_stats_breakdown[L1_WRBK_ACC][HIT] = 0
	Total_core_cache_stats_breakdown[L1_WRBK_ACC][HIT_RESERVED] = 0
	Total_core_cache_stats_breakdown[L1_WRBK_ACC][MISS] = 0
	Total_core_cache_stats_breakdown[L1_WRBK_ACC][RESERVATION_FAIL] = 0
	Total_core_cache_stats_breakdown[L2_WRBK_ACC][HIT] = 0
	Total_core_cache_stats_breakdown[L2_WRBK_ACC][HIT_RESERVED] = 0
	Total_core_cache_stats_breakdown[L2_WRBK_ACC][MISS] = 0
	Total_core_cache_stats_breakdown[L2_WRBK_ACC][RESERVATION_FAIL] = 0
	Total_core_cache_stats_breakdown[INST_ACC_R][HIT] = 19854
	Total_core_cache_stats_breakdown[INST_ACC_R][HIT_RESERVED] = 0
	Total_core_cache_stats_breakdown[INST_ACC_R][MISS] = 2778
	Total_core_cache_stats_breakdown[INST_ACC_R][RESERVATION_FAIL] = 6846
	Total_core_cache_stats_breakdown[L1_WR_ALLOC_R][HIT] = 0
	Total_core_cache_stats_breakdown[L1_WR_ALLOC_R][HIT_RESERVED] = 0
	Total_core_cache_stats_breakdown[L1_WR_ALLOC_R][MISS] = 0
	Total_core_cache_stats_breakdown[L1_WR_ALLOC_R][RESERVATION_FAIL] = 0
	Total_core_cache_stats_breakdown[L2_WR_ALLOC_R][HIT] = 0
	Total_core_cache_stats_breakdown[L2_WR_ALLOC_R][HIT_RESERVED] = 0
	Total_core_cache_stats_breakdown[L2_WR_ALLOC_R][MISS] = 0
	Total_core_cache_stats_breakdown[L2_WR_ALLOC_R][RESERVATION_FAIL] = 0
	Total_core_cache_stats_breakdown[CONST_ACC_R][TOTAL_ACCESS] = 14336
	Total_core_cache_stats_breakdown[INST_ACC_R][TOTAL_ACCESS] = 22632
Shader 0 warp_id issue ditsribution:
warp_id:
0, 1, 2, 3, 4, 5, 6, 7, 8, 9, 10, 11, 12, 13, 14, 15, 16, 17, 18, 19, 20, 21, 22, 23, 24, 25, 26, 27, 28, 29, 30, 31, 32, 33, 34, 35, 36, 37, 38, 39, 40, 41, 42, 43, 44, 45, 46, 47, 48, 49, 50, 51, 52, 53, 54, 55, 56, 57, 58, 59, 60, 61, 62, 63, 
distro:
23, 23, 22, 23, 22, 23, 22, 23, 23, 23, 23, 23, 23, 23, 23, 23, 23, 23, 23, 23, 23, 23, 23, 23, 23, 23, 23, 23, 23, 23, 23, 23, 23, 23, 23, 23, 23, 23, 23, 23, 23, 23, 23, 23, 23, 23, 23, 23, 23, 23, 23, 23, 23, 23, 23, 23, 23, 23, 23, 23, 23, 23, 23, 23, 
gpgpu_n_tot_thrd_icount = 1317216
gpgpu_n_tot_w_icount = 41163
gpgpu_n_stall_shd_mem = 5424
gpgpu_n_mem_read_local = 0
gpgpu_n_mem_write_local = 0
gpgpu_n_mem_read_global = 2090
gpgpu_n_mem_write_global = 17
gpgpu_n_mem_texture = 0
gpgpu_n_mem_const = 28
gpgpu_n_load_insn  = 65578
gpgpu_n_store_insn = 17
gpgpu_n_shmem_insn = 0
gpgpu_n_tex_insn = 0
gpgpu_n_const_mem_insn = 0
gpgpu_n_param_mem_insn = 458752
gpgpu_n_shmem_bkconflict = 0
gpgpu_n_cache_bkconflict = 0
gpgpu_n_intrawarp_mshr_merge = 0
gpgpu_n_cmem_portconflict = 4886
gpgpu_stall_shd_mem[c_mem][bk_conf] = 4886
gpgpu_stall_shd_mem[c_mem][mshr_rc] = 0
gpgpu_stall_shd_mem[c_mem][icnt_rc] = 0
gpgpu_stall_shd_mem[c_mem][data_port_stall] = 0
gpgpu_stall_shd_mem[t_mem][mshr_rc] = 0
gpgpu_stall_shd_mem[t_mem][icnt_rc] = 0
gpgpu_stall_shd_mem[t_mem][data_port_stall] = 0
gpgpu_stall_shd_mem[s_mem][bk_conf] = 0
gpgpu_stall_shd_mem[gl_mem][bk_conf] = 0
gpgpu_stall_shd_mem[gl_mem][coal_stall] = 0
gpgpu_stall_shd_mem[gl_mem][data_port_stall] = 0
gpgpu_stall_shd_mem[g_mem_ld][mshr_rc] = 0
gpgpu_stall_shd_mem[g_mem_ld][icnt_rc] = 538
gpgpu_stall_shd_mem[g_mem_ld][wb_icnt_rc] = 0
gpgpu_stall_shd_mem[g_mem_ld][wb_rsrv_fail] = 0
gpgpu_stall_shd_mem[g_mem_st][mshr_rc] = 0
gpgpu_stall_shd_mem[g_mem_st][icnt_rc] = 0
gpgpu_stall_shd_mem[g_mem_st][wb_icnt_rc] = 0
gpgpu_stall_shd_mem[g_mem_st][wb_rsrv_fail] = 0
gpgpu_stall_shd_mem[l_mem_ld][mshr_rc] = 0
gpgpu_stall_shd_mem[l_mem_ld][icnt_rc] = 0
gpgpu_stall_shd_mem[l_mem_ld][wb_icnt_rc] = 0
gpgpu_stall_shd_mem[l_mem_ld][wb_rsrv_fail] = 0
gpgpu_stall_shd_mem[l_mem_st][mshr_rc] = 0
gpgpu_stall_shd_mem[l_mem_st][icnt_rc] = 0
gpgpu_stall_shd_mem[l_mem_ld][wb_icnt_rc] = 0
gpgpu_stall_shd_mem[l_mem_ld][wb_rsrv_fail] = 0
gpu_reg_bank_conflict_stalls = 0
Warp Occupancy Distribution:
Stall:16027	W0_Idle:136733	W0_Scoreboard:624265	W1:203	W2:0	W3:0	W4:0	W5:0	W6:0	W7:0	W8:0	W9:0	W10:0	W11:0	W12:0	W13:0	W14:0	W15:0	W16:0	W17:0	W18:0	W19:0	W20:0	W21:0	W22:0	W23:0	W24:0	W25:0	W26:0	W27:0	W28:0	W29:0	W30:0	W31:0	W32:40960
traffic_breakdown_coretomem[CONST_ACC_R] = 224 {8:28,}
traffic_breakdown_coretomem[GLOBAL_ACC_R] = 16720 {8:2090,}
traffic_breakdown_coretomem[GLOBAL_ACC_W] = 680 {40:17,}
traffic_breakdown_coretomem[INST_ACC_R] = 680 {8:85,}
traffic_breakdown_memtocore[CONST_ACC_R] = 2016 {72:28,}
traffic_breakdown_memtocore[GLOBAL_ACC_R] = 83600 {40:2090,}
traffic_breakdown_memtocore[GLOBAL_ACC_W] = 136 {8:17,}
traffic_breakdown_memtocore[INST_ACC_R] = 11560 {136:85,}
maxmrqlatency = 85 
maxdqlatency = 0 
maxmflatency = 40985 
averagemflatency = 8172 
max_icnt2mem_latency = 40750 
max_icnt2sh_latency = 316034 
mrq_lat_table:157 	29 	50 	98 	58 	120 	48 	0 	0 	0 	0 	0 	0 	0 	0 	0 	0 	0 	0 	0 	0 	0 	0 	0 	0 	0 	0 	0 	0 	0 	0 	0 	
dq_lat_table:0 	0 	0 	0 	0 	0 	0 	0 	0 	0 	0 	0 	0 	0 	0 	0 	0 	0 	0 	0 	0 	0 	0 	0 	0 	0 	0 	0 	0 	0 	0 	0 	
mf_lat_table:0 	0 	0 	0 	0 	0 	0 	62 	5 	0 	0 	512 	257 	1292 	4 	3 	0 	0 	0 	0 	0 	0 	0 	0 	0 	0 	0 	0 	0 	0 	0 	0 	
icnt2mem_lat_table:0 	0 	101 	23 	23 	0 	5 	0 	0 	0 	0 	512 	258 	1291 	4 	3 	0 	0 	0 	0 	0 	0 	0 	0 	
icnt2sh_lat_table:0 	0 	498 	1056 	535 	29 	0 	0 	0 	0 	0 	0 	0 	0 	0 	0 	0 	1 	16 	0 	0 	0 	0 	0 	
mf_lat_pw_table:0 	0 	0 	0 	0 	0 	0 	13 	0 	0 	0 	2 	2 	6 	2 	1 	0 	0 	0 	0 	0 	0 	0 	0 	0 	0 	0 	0 	0 	0 	0 	0 	
maximum concurrent accesses to same row:
dram[0]:         0         0         0         0         0         0         0         0         0         0         0         0         0         0         0         0 
dram[1]:         0         0         0         0         0         0         0         0         0         0         1         0         0         0         0         0 
dram[2]:         0         0         0         0         0        15         0         0         0         0         0         0         0         0         0         0 
dram[3]:         0         0         0         0         0         0         0         0         0         0         0         0         0         0         0         0 
dram[4]:         0         0         0         0         0         0         0         0         0         0         0         0         0         0         0         0 
dram[5]:         0         0         0         0         0         0         0         0         0         0         0         0         0         0         0         0 
dram[6]:         0         0         0         0         0         0         0         0         0         0         0         0         0         0         0         0 
dram[7]:         0         0         0         0         0         0         0         0         0         0         0         0         0         0         0         0 
dram[8]:         0         0         9         0         0         0         0         0         0         0         0         0         0         0         0         0 
dram[9]:         0         0         0         0         0         0         0         0         0         0         0         0         0         0         0         0 
dram[10]:         0         0         0         0         0         0         0         0         0         0         0         0         0         0         0         0 
maximum service time to same row:
dram[0]:         0         0      4580      4584     11446     11451         0         0         0         0         0         0         0         0         0         0 
dram[1]:         0         0      4580      4584     11448     11448         0         0         0     64579     14050     54277         0         0         0         0 
dram[2]:         0         0      4580      4584     11447     61363     64570         0     51680         0         0         0         0         0         0         0 
dram[3]:         0         0      4580      4584     11447     11448         0     57705     64576         0         0         0     91334         0         0         0 
dram[4]:         0         0      4580      4582     11446     11449     57707         0         0         0         0     46748         0         0       228       789 
dram[5]:         0         0      4580      4581     11447     11452     64573         0     50172         0         0         0     91336         0     14313      4839 
dram[6]:         0         0      4580      4581     11446     11449         0         0         0     47604     48460     50926         0         0         0     78020 
dram[7]:         0         0      4580      4581     11447     11452         0         0     36565         0         0         0         0         0         0         0 
dram[8]:         0         0     68230      4584     11446     11449         0         0         0         0     49316         0         0         0         0         0 
dram[9]:         0         0      4580      4584     11447     11452         0         0     46035         0         0         0         0         0         0         0 
dram[10]:         0         0      4580      4584     11446     11449     64572         0         0         0     54275         0         0         0         0     86260 
average row accesses per activate:
dram[0]:       inf      -nan  8.000000  8.000000 15.000000 15.000000      -nan      -nan      -nan      -nan      -nan      -nan      -nan      -nan      -nan      -nan 
dram[1]:      -nan      -nan  8.000000  8.000000 15.000000 15.000000      -nan      -nan      -nan  2.000000  1.000000  2.000000      -nan      -nan      -nan      -nan 
dram[2]:      -nan      -nan  8.000000  8.000000 15.000000  8.500000  2.000000      -nan  1.000000      -nan      -nan      -nan      -nan      -nan      -nan      -nan 
dram[3]:      -nan      -nan  9.000000  9.000000 15.000000 15.000000      -nan  4.000000  2.000000      -nan      -nan      -nan  2.000000      -nan      -nan      -nan 
dram[4]:      -nan      -nan  9.000000  9.000000 15.000000 15.000000  2.000000      -nan      -nan      -nan      -nan  1.000000      -nan      -nan  1.000000  1.000000 
dram[5]:      -nan      -nan  9.000000  9.000000 15.000000 15.000000  2.000000      -nan  1.000000      -nan      -nan      -nan  2.000000      -nan  1.000000  1.000000 
dram[6]:      -nan      -nan  9.000000  9.000000 14.000000 14.000000      -nan      -nan      -nan  1.000000  1.000000  1.000000      -nan      -nan      -nan  2.000000 
dram[7]:      -nan      -nan  9.000000  9.000000 14.000000 14.000000      -nan      -nan  1.000000      -nan      -nan      -nan      -nan      -nan      -nan      -nan 
dram[8]:      -nan      -nan  5.500000  9.000000 14.000000 14.000000      -nan      -nan      -nan      -nan  1.000000      -nan      -nan      -nan      -nan      -nan 
dram[9]:      -nan      -nan  9.000000  9.000000 14.000000 14.000000      -nan      -nan  1.000000      -nan      -nan      -nan      -nan      -nan      -nan      -nan 
dram[10]:      -nan      -nan  9.000000  9.000000 14.000000 14.000000  2.000000      -nan      -nan      -nan  2.000000      -nan      -nan      -nan      -nan  2.000000 
average row locality = 560/74 = 7.567567
number of total memory accesses made:
dram[0]:         0         0         0         0         0         0         0         0         0         0         0         0         0         0         0         0 
dram[1]:         0         0         0         0         0         0         0         0         0         0         0         0         0         0         0         0 
dram[2]:         0         0         0         0         0         0         0         0         0         0         0         0         0         0         0         0 
dram[3]:         0         0         0         0         0         0         0         0         0         0         0         0         0         0         0         0 
dram[4]:         0         0         0         0         0         0         0         0         0         0         0         0         0         0         0         0 
dram[5]:         0         0         0         0         0         0         0         0         0         0         0         0         0         0         0         0 
dram[6]:         0         0         0         0         0         0         0         0         0         0         0         0         0         0         0         0 
dram[7]:         0         0         0         0         0         0         0         0         0         0         0         0         0         0         0         0 
dram[8]:         0         0         0         0         0         0         0         0         0         0         0         0         0         0         0         0 
dram[9]:         0         0         0         0         0         0         0         0         0         0         0         0         0         0         0         0 
dram[10]:         0         0         0         0         0         0         0         0         0         0         0         0         0         0         0         0 
total accesses: 0
min_bank_accesses = 0!
min_chip_accesses = 0!
number of total read accesses:
dram[0]:         1         0         8         8        15        15         0         0         0         0         0         0         0         0         0         0 
dram[1]:         0         0         8         8        15        15         0         0         0         1         2         1         0         0         0         0 
dram[2]:         0         0         8         8        15        16         1         0         1         0         0         0         0         0         0         0 
dram[3]:         0         0         9         9        15        15         0         2         1         0         0         0         1         0         0         0 
dram[4]:         0         0         9         9        15        15         1         0         0         0         0         1         0         0         1         1 
dram[5]:         0         0         9         9        15        15         1         0         1         0         0         0         1         0         1         1 
dram[6]:         0         0         9         9        14        14         0         0         0         1         1         1         0         0         0         1 
dram[7]:         0         0         9         9        14        14         0         0         1         0         0         0         0         0         0         0 
dram[8]:         0         0        10         9        14        14         0         0         0         0         1         0         0         0         0         0 
dram[9]:         0         0         9         9        14        14         0         0         1         0         0         0         0         0         0         0 
dram[10]:         0         0         9         9        14        14         1         0         0         0         1         0         0         0         0         1 
total reads: 544
min_bank_accesses = 0!
chip skew: 53/47 = 1.13
number of total write accesses:
dram[0]:         0         0         0         0         0         0         0         0         0         0         0         0         0         0         0         0 
dram[1]:         0         0         0         0         0         0         0         0         0         1         0         1         0         0         0         0 
dram[2]:         0         0         0         0         0         1         1         0         0         0         0         0         0         0         0         0 
dram[3]:         0         0         0         0         0         0         0         2         1         0         0         0         1         0         0         0 
dram[4]:         0         0         0         0         0         0         1         0         0         0         0         0         0         0         0         0 
dram[5]:         0         0         0         0         0         0         1         0         0         0         0         0         1         0         0         0 
dram[6]:         0         0         0         0         0         0         0         0         0         0         0         0         0         0         0         1 
dram[7]:         0         0         0         0         0         0         0         0         0         0         0         0         0         0         0         0 
dram[8]:         0         0         1         0         0         0         0         0         0         0         0         0         0         0         0         0 
dram[9]:         0         0         0         0         0         0         0         0         0         0         0         0         0         0         0         0 
dram[10]:         0         0         0         0         0         0         1         0         0         0         1         0         0         0         0         1 
total reads: 16
min_bank_accesses = 0!
min_chip_accesses = 0!
average mf latency per bank:
dram[0]:       6678    none       21823     21874     38947     39147    none      none      none      none      none      none      none      none      none      none  
dram[1]:     none      none       25243     25304     38999     39186    none      none      none        8818     11484      4103    none      none      none      none  
dram[2]:     none      none       25276     25332     39014     36125      7102    none         250    none      none      none      none      none      none      none  
dram[3]:     none      none       24166     24212     39002     39154    none        5840      7961    none      none      none       19737    none      none      none  
dram[4]:     none      none       24114     24189     39041     39147      5811    none      none      none      none         352    none      none           0         0
dram[5]:     none      none       24117     24189     39031     39146      7532    none         352    none      none      none       20492    none           0         0
dram[6]:     none      none       24122     24193     39915     40073    none      none      none         352       352       250    none      none      none       14262
dram[7]:     none      none       24118     24179     38725     38876    none      none       11647    none      none      none      none      none      none      none  
dram[8]:     none      none       21939     24166     38726     38864    none      none      none      none         352    none      none      none      none      none  
dram[9]:     none      none       24109     24171     38759     38879    none      none       10367    none      none      none      none      none      none      none  
dram[10]:     none      none       24105     24158     38742     38871      6349    none      none      none        3246    none      none      none      none       17577
maximum mf latency per bank:
dram[0]:        252         0     10601     10606     10634     10688         0         0         0         0         0         0         0         0         0         0
dram[1]:          0         0     10616     10637     10638     10698         0         0         0     17637     10421      8206         0         0         0         0
dram[2]:          0         0     10630     10636     10660     25891     14205         0       250         0         0         0         0         0         0         0
dram[3]:          0         0     10613     10622     10689     10715         0     13452     15923         0         0         0     39475         0         0         0
dram[4]:          0         0     10613     10627     10670     10719     11622         0         0         0         0       352         0         0         0         0
dram[5]:          0         0     10608     10621     10675     10724     15064         0       352         0         0         0     40985         0         0         0
dram[6]:          0         0     10613     10619     10641     10697         0         0         0       352       352       250         0         0         0     28525
dram[7]:          0         0     10607     10618     10641     10680         0         0     11647         0         0         0         0         0         0         0
dram[8]:          0         0     24177     10616     10636     10691         0         0         0         0       352         0         0         0         0         0
dram[9]:          0         0     10603     10615     10651     10685         0         0      9457         0         0         0         0         0         0         0
dram[10]:          0         0     10604     10612     10635     10675     12699         0         0         0      6492         0         0         0         0     35155
Memory Partition 0: 
Cache L2_bank_000:
MSHR contents

Cache L2_bank_001:
MSHR contents

In Dram Latency Queue (total = 0): 
DRAM[0]: 16 bks, busW=4 BL=8 CL=12, tRRD=2 tCCD=6, tRCD=12 tRAS=28 tRP=12 tRC=40
n_cmd=169620 n_nop=169427 n_act=5 n_pre=0 n_req=47 n_rd=188 n_write=0 bw_util=0.002217
n_activity=440 dram_eff=0.8545
bk0: 4a 169602i bk1: 0a 169621i bk2: 32a 169547i bk3: 32a 169497i bk4: 60a 169473i bk5: 60a 169358i bk6: 0a 169618i bk7: 0a 169618i bk8: 0a 169619i bk9: 0a 169619i bk10: 0a 169620i bk11: 0a 169620i bk12: 0a 169620i bk13: 0a 169620i bk14: 0a 169620i bk15: 0a 169620i 
dram_util_bins: 0 0 0 0 0 0 0 0 0 0
dram_eff_bins: 0 0 0 0 0 0 0 0 0 0
mrqq: max=13 avg=0.012074
Memory Partition 1: 
Cache L2_bank_002:
MSHR contents

Cache L2_bank_003:
MSHR contents

In Dram Latency Queue (total = 0): 
DRAM[1]: 16 bks, busW=4 BL=8 CL=12, tRRD=2 tCCD=6, tRCD=12 tRAS=28 tRP=12 tRC=40
n_cmd=169620 n_nop=169409 n_act=8 n_pre=1 n_req=52 n_rd=200 n_write=2 bw_util=0.002382
n_activity=572 dram_eff=0.7063
bk0: 0a 169621i bk1: 0a 169622i bk2: 32a 169546i bk3: 32a 169491i bk4: 60a 169449i bk5: 60a 169338i bk6: 0a 169620i bk7: 0a 169621i bk8: 0a 169621i bk9: 4a 169595i bk10: 8a 169568i bk11: 4a 169592i bk12: 0a 169618i bk13: 0a 169618i bk14: 0a 169619i bk15: 0a 169620i 
dram_util_bins: 0 0 0 0 0 0 0 0 0 0
dram_eff_bins: 0 0 0 0 0 0 0 0 0 0
mrqq: max=13 avg=0.0137307
Memory Partition 2: 
Cache L2_bank_004:
MSHR contents

Cache L2_bank_005:
MSHR contents

In Dram Latency Queue (total = 0): 
DRAM[2]: 16 bks, busW=4 BL=8 CL=12, tRRD=2 tCCD=6, tRCD=12 tRAS=28 tRP=12 tRC=40
n_cmd=169620 n_nop=169414 n_act=7 n_pre=1 n_req=51 n_rd=196 n_write=2 bw_util=0.002335
n_activity=532 dram_eff=0.7444
bk0: 0a 169621i bk1: 0a 169622i bk2: 32a 169546i bk3: 32a 169491i bk4: 60a 169454i bk5: 64a 169304i bk6: 4a 169593i bk7: 0a 169618i bk8: 4a 169598i bk9: 0a 169617i bk10: 0a 169618i bk11: 0a 169619i bk12: 0a 169620i bk13: 0a 169620i bk14: 0a 169620i bk15: 0a 169621i 
dram_util_bins: 0 0 0 0 0 0 0 0 0 0
dram_eff_bins: 0 0 0 0 0 0 0 0 0 0
mrqq: max=13 avg=0.012923
Memory Partition 3: 
Cache L2_bank_006:
MSHR contents
MSHR: tag=0xc02c4400, atomic=0 1 entries : 0x7fad33a06df0 :  mf: uid= 50822, sid01:w00, part=3, addr=0xc02c4440, load , size=32, unknown  status = IN_PARTITION_DRAM (316033), 

Cache L2_bank_007:
MSHR contents

In Dram Latency Queue (total = 0): 
DRAM[3]: 16 bks, busW=4 BL=8 CL=12, tRRD=2 tCCD=6, tRCD=12 tRAS=28 tRP=12 tRC=40
n_cmd=169620 n_nop=169401 n_act=7 n_pre=0 n_req=56 n_rd=208 n_write=4 bw_util=0.0025
n_activity=529 dram_eff=0.8015
bk0: 0a 169621i bk1: 0a 169622i bk2: 36a 169538i bk3: 36a 169482i bk4: 60a 169451i bk5: 60a 169338i bk6: 0a 169619i bk7: 8a 169569i bk8: 4a 169585i bk9: 0a 169617i bk10: 0a 169619i bk11: 0a 169620i bk12: 4a 169595i bk13: 0a 169619i bk14: 0a 169620i bk15: 0a 169620i 
dram_util_bins: 0 0 0 0 0 0 0 0 0 0
dram_eff_bins: 0 0 0 0 0 0 0 0 0 0
mrqq: max=11 avg=0.011567
Memory Partition 4: 
Cache L2_bank_008:
MSHR contents

Cache L2_bank_009:
MSHR contents

In Dram Latency Queue (total = 0): 
DRAM[4]: 16 bks, busW=4 BL=8 CL=12, tRRD=2 tCCD=6, tRCD=12 tRAS=28 tRP=12 tRC=40
n_cmd=169620 n_nop=169403 n_act=8 n_pre=0 n_req=53 n_rd=208 n_write=1 bw_util=0.002464
n_activity=576 dram_eff=0.7257
bk0: 0a 169619i bk1: 0a 169623i bk2: 36a 169540i bk3: 36a 169477i bk4: 60a 169453i bk5: 60a 169341i bk6: 4a 169593i bk7: 0a 169619i bk8: 0a 169619i bk9: 0a 169619i bk10: 0a 169620i bk11: 4a 169600i bk12: 0a 169618i bk13: 0a 169620i bk14: 4a 169600i bk15: 4a 169599i 
dram_util_bins: 0 0 0 0 0 0 0 0 0 0
dram_eff_bins: 0 0 0 0 0 0 0 0 0 0
mrqq: max=11 avg=0.012133
Memory Partition 5: 
Cache L2_bank_010:
MSHR contents
MSHR: tag=0xc02c7d00, atomic=0 1 entries : 0x7fad32fcad10 :  mf: uid= 50823, sid01:w00, part=5, addr=0xc02c7d60, load , size=32, unknown  status = IN_PARTITION_DRAM (316034), 

Cache L2_bank_011:
MSHR contents

In Dram Latency Queue (total = 0): 
DRAM[5]: 16 bks, busW=4 BL=8 CL=12, tRRD=2 tCCD=6, tRCD=12 tRAS=28 tRP=12 tRC=40
n_cmd=169620 n_nop=169398 n_act=9 n_pre=0 n_req=55 n_rd=211 n_write=2 bw_util=0.002511
n_activity=599 dram_eff=0.7112
bk0: 0a 169617i bk1: 0a 169620i bk2: 36a 169538i bk3: 36a 169476i bk4: 60a 169457i bk5: 60a 169347i bk6: 4a 169594i bk7: 0a 169618i bk8: 4a 169601i bk9: 0a 169620i bk10: 0a 169621i bk11: 0a 169621i bk12: 3a 169597i bk13: 0a 169619i bk14: 4a 169599i bk15: 4a 169598i 
dram_util_bins: 0 0 0 0 0 0 0 0 0 0
dram_eff_bins: 0 0 0 0 0 0 0 0 0 0
mrqq: max=13 avg=0.0134182
Memory Partition 6: 
Cache L2_bank_012:
MSHR contents

Cache L2_bank_013:
MSHR contents

In Dram Latency Queue (total = 0): 
DRAM[6]: 16 bks, busW=4 BL=8 CL=12, tRRD=2 tCCD=6, tRCD=12 tRAS=28 tRP=12 tRC=40
n_cmd=169620 n_nop=169411 n_act=8 n_pre=0 n_req=51 n_rd=200 n_write=1 bw_util=0.00237
n_activity=560 dram_eff=0.7179
bk0: 0a 169620i bk1: 0a 169621i bk2: 36a 169537i bk3: 36a 169483i bk4: 56a 169456i bk5: 56a 169357i bk6: 0a 169619i bk7: 0a 169620i bk8: 0a 169620i bk9: 4a 169600i bk10: 4a 169600i bk11: 4a 169600i bk12: 0a 169619i bk13: 0a 169620i bk14: 0a 169620i bk15: 4a 169595i 
dram_util_bins: 0 0 0 0 0 0 0 0 0 0
dram_eff_bins: 0 0 0 0 0 0 0 0 0 0
mrqq: max=11 avg=0.0119267
Memory Partition 7: 
Cache L2_bank_014:
MSHR contents

Cache L2_bank_015:
MSHR contents

In Dram Latency Queue (total = 0): 
DRAM[7]: 16 bks, busW=4 BL=8 CL=12, tRRD=2 tCCD=6, tRCD=12 tRAS=28 tRP=12 tRC=40
n_cmd=169620 n_nop=169427 n_act=5 n_pre=0 n_req=47 n_rd=188 n_write=0 bw_util=0.002217
n_activity=440 dram_eff=0.8545
bk0: 0a 169621i bk1: 0a 169622i bk2: 36a 169539i bk3: 36a 169475i bk4: 56a 169460i bk5: 56a 169362i bk6: 0a 169619i bk7: 0a 169619i bk8: 4a 169600i bk9: 0a 169618i bk10: 0a 169619i bk11: 0a 169619i bk12: 0a 169619i bk13: 0a 169619i bk14: 0a 169620i bk15: 0a 169620i 
dram_util_bins: 0 0 0 0 0 0 0 0 0 0
dram_eff_bins: 0 0 0 0 0 0 0 0 0 0
mrqq: max=10 avg=0.0107829
Memory Partition 8: 
Cache L2_bank_016:
MSHR contents

Cache L2_bank_017:
MSHR contents

In Dram Latency Queue (total = 0): 
DRAM[8]: 16 bks, busW=4 BL=8 CL=12, tRRD=2 tCCD=6, tRCD=12 tRAS=28 tRP=12 tRC=40
n_cmd=169620 n_nop=169420 n_act=6 n_pre=1 n_req=49 n_rd=192 n_write=1 bw_util=0.002276
n_activity=492 dram_eff=0.7846
bk0: 0a 169621i bk1: 0a 169623i bk2: 40a 169501i bk3: 36a 169486i bk4: 56a 169464i bk5: 56a 169356i bk6: 0a 169618i bk7: 0a 169619i bk8: 0a 169619i bk9: 0a 169619i bk10: 4a 169601i bk11: 0a 169619i bk12: 0a 169620i bk13: 0a 169620i bk14: 0a 169620i bk15: 0a 169620i 
dram_util_bins: 0 0 0 0 0 0 0 0 0 0
dram_eff_bins: 0 0 0 0 0 0 0 0 0 0
mrqq: max=11 avg=0.00991039
Memory Partition 9: 
Cache L2_bank_018:
MSHR contents

Cache L2_bank_019:
MSHR contents

In Dram Latency Queue (total = 0): 
DRAM[9]: 16 bks, busW=4 BL=8 CL=12, tRRD=2 tCCD=6, tRCD=12 tRAS=28 tRP=12 tRC=40
n_cmd=169620 n_nop=169427 n_act=5 n_pre=0 n_req=47 n_rd=188 n_write=0 bw_util=0.002217
n_activity=440 dram_eff=0.8545
bk0: 0a 169621i bk1: 0a 169622i bk2: 36a 169539i bk3: 36a 169481i bk4: 56a 169469i bk5: 56a 169361i bk6: 0a 169619i bk7: 0a 169619i bk8: 4a 169600i bk9: 0a 169618i bk10: 0a 169619i bk11: 0a 169619i bk12: 0a 169619i bk13: 0a 169619i bk14: 0a 169620i bk15: 0a 169620i 
dram_util_bins: 0 0 0 0 0 0 0 0 0 0
dram_eff_bins: 0 0 0 0 0 0 0 0 0 0
mrqq: max=10 avg=0.0106237
Memory Partition 10: 
Cache L2_bank_020:
MSHR contents

Cache L2_bank_021:
MSHR contents

In Dram Latency Queue (total = 0): 
DRAM[10]: 16 bks, busW=4 BL=8 CL=12, tRRD=2 tCCD=6, tRCD=12 tRAS=28 tRP=12 tRC=40
n_cmd=169620 n_nop=169414 n_act=7 n_pre=0 n_req=52 n_rd=196 n_write=3 bw_util=0.002346
n_activity=520 dram_eff=0.7654
bk0: 0a 169619i bk1: 0a 169622i bk2: 36a 169538i bk3: 36a 169487i bk4: 56a 169458i bk5: 56a 169357i bk6: 4a 169593i bk7: 0a 169619i bk8: 0a 169619i bk9: 0a 169620i bk10: 4a 169595i bk11: 0a 169619i bk12: 0a 169619i bk13: 0a 169620i bk14: 0a 169620i bk15: 4a 169594i 
dram_util_bins: 0 0 0 0 0 0 0 0 0 0
dram_eff_bins: 0 0 0 0 0 0 0 0 0 0
mrqq: max=10 avg=0.0103584

========= L2 cache stats =========
L2_cache_bank[0]: Access = 120, Miss = 24, Miss_rate = 0.200, Pending_hits = 96, Reservation_fails = 0
L2_cache_bank[1]: Access = 92, Miss = 23, Miss_rate = 0.250, Pending_hits = 69, Reservation_fails = 0
L2_cache_bank[2]: Access = 118, Miss = 25, Miss_rate = 0.212, Pending_hits = 69, Reservation_fails = 0
L2_cache_bank[3]: Access = 94, Miss = 25, Miss_rate = 0.266, Pending_hits = 69, Reservation_fails = 0
L2_cache_bank[4]: Access = 94, Miss = 25, Miss_rate = 0.266, Pending_hits = 69, Reservation_fails = 0
L2_cache_bank[5]: Access = 93, Miss = 24, Miss_rate = 0.258, Pending_hits = 69, Reservation_fails = 0
L2_cache_bank[6]: Access = 99, Miss = 26, Miss_rate = 0.263, Pending_hits = 72, Reservation_fails = 0
L2_cache_bank[7]: Access = 98, Miss = 26, Miss_rate = 0.265, Pending_hits = 72, Reservation_fails = 0
L2_cache_bank[8]: Access = 125, Miss = 26, Miss_rate = 0.208, Pending_hits = 99, Reservation_fails = 0
L2_cache_bank[9]: Access = 125, Miss = 26, Miss_rate = 0.208, Pending_hits = 99, Reservation_fails = 0
L2_cache_bank[10]: Access = 100, Miss = 28, Miss_rate = 0.280, Pending_hits = 72, Reservation_fails = 0
L2_cache_bank[11]: Access = 124, Miss = 25, Miss_rate = 0.202, Pending_hits = 99, Reservation_fails = 0
L2_cache_bank[12]: Access = 93, Miss = 24, Miss_rate = 0.258, Pending_hits = 69, Reservation_fails = 0
L2_cache_bank[13]: Access = 95, Miss = 26, Miss_rate = 0.274, Pending_hits = 69, Reservation_fails = 0
L2_cache_bank[14]: Access = 93, Miss = 24, Miss_rate = 0.258, Pending_hits = 69, Reservation_fails = 0
L2_cache_bank[15]: Access = 92, Miss = 23, Miss_rate = 0.250, Pending_hits = 69, Reservation_fails = 0
L2_cache_bank[16]: Access = 94, Miss = 25, Miss_rate = 0.266, Pending_hits = 69, Reservation_fails = 0
L2_cache_bank[17]: Access = 92, Miss = 23, Miss_rate = 0.250, Pending_hits = 69, Reservation_fails = 0
L2_cache_bank[18]: Access = 100, Miss = 24, Miss_rate = 0.240, Pending_hits = 69, Reservation_fails = 0
L2_cache_bank[19]: Access = 92, Miss = 23, Miss_rate = 0.250, Pending_hits = 69, Reservation_fails = 0
L2_cache_bank[20]: Access = 94, Miss = 25, Miss_rate = 0.266, Pending_hits = 69, Reservation_fails = 0
L2_cache_bank[21]: Access = 93, Miss = 24, Miss_rate = 0.258, Pending_hits = 69, Reservation_fails = 0
L2_total_cache_accesses = 2220
L2_total_cache_misses = 544
L2_total_cache_miss_rate = 0.2450
L2_total_cache_pending_hits = 1644
L2_total_cache_reservation_fails = 0
L2_total_cache_breakdown:
	L2_cache_stats_breakdown[GLOBAL_ACC_R][HIT] = 31
	L2_cache_stats_breakdown[GLOBAL_ACC_R][HIT_RESERVED] = 1536
	L2_cache_stats_breakdown[GLOBAL_ACC_R][MISS] = 523
	L2_cache_stats_breakdown[GLOBAL_ACC_R][RESERVATION_FAIL] = 0
	L2_cache_stats_breakdown[LOCAL_ACC_R][HIT] = 0
	L2_cache_stats_breakdown[LOCAL_ACC_R][HIT_RESERVED] = 0
	L2_cache_stats_breakdown[LOCAL_ACC_R][MISS] = 0
	L2_cache_stats_breakdown[LOCAL_ACC_R][RESERVATION_FAIL] = 0
	L2_cache_stats_breakdown[CONST_ACC_R][HIT] = 0
	L2_cache_stats_breakdown[CONST_ACC_R][HIT_RESERVED] = 27
	L2_cache_stats_breakdown[CONST_ACC_R][MISS] = 1
	L2_cache_stats_breakdown[CONST_ACC_R][RESERVATION_FAIL] = 0
	L2_cache_stats_breakdown[TEXTURE_ACC_R][HIT] = 0
	L2_cache_stats_breakdown[TEXTURE_ACC_R][HIT_RESERVED] = 0
	L2_cache_stats_breakdown[TEXTURE_ACC_R][MISS] = 0
	L2_cache_stats_breakdown[TEXTURE_ACC_R][RESERVATION_FAIL] = 0
	L2_cache_stats_breakdown[GLOBAL_ACC_W][HIT] = 1
	L2_cache_stats_breakdown[GLOBAL_ACC_W][HIT_RESERVED] = 0
	L2_cache_stats_breakdown[GLOBAL_ACC_W][MISS] = 16
	L2_cache_stats_breakdown[GLOBAL_ACC_W][RESERVATION_FAIL] = 0
	L2_cache_stats_breakdown[LOCAL_ACC_W][HIT] = 0
	L2_cache_stats_breakdown[LOCAL_ACC_W][HIT_RESERVED] = 0
	L2_cache_stats_breakdown[LOCAL_ACC_W][MISS] = 0
	L2_cache_stats_breakdown[LOCAL_ACC_W][RESERVATION_FAIL] = 0
	L2_cache_stats_breakdown[L1_WRBK_ACC][HIT] = 0
	L2_cache_stats_breakdown[L1_WRBK_ACC][HIT_RESERVED] = 0
	L2_cache_stats_breakdown[L1_WRBK_ACC][MISS] = 0
	L2_cache_stats_breakdown[L1_WRBK_ACC][RESERVATION_FAIL] = 0
	L2_cache_stats_breakdown[L2_WRBK_ACC][HIT] = 0
	L2_cache_stats_breakdown[L2_WRBK_ACC][HIT_RESERVED] = 0
	L2_cache_stats_breakdown[L2_WRBK_ACC][MISS] = 0
	L2_cache_stats_breakdown[L2_WRBK_ACC][RESERVATION_FAIL] = 0
	L2_cache_stats_breakdown[INST_ACC_R][HIT] = 0
	L2_cache_stats_breakdown[INST_ACC_R][HIT_RESERVED] = 81
	L2_cache_stats_breakdown[INST_ACC_R][MISS] = 4
	L2_cache_stats_breakdown[INST_ACC_R][RESERVATION_FAIL] = 0
	L2_cache_stats_breakdown[L1_WR_ALLOC_R][HIT] = 0
	L2_cache_stats_breakdown[L1_WR_ALLOC_R][HIT_RESERVED] = 0
	L2_cache_stats_breakdown[L1_WR_ALLOC_R][MISS] = 0
	L2_cache_stats_breakdown[L1_WR_ALLOC_R][RESERVATION_FAIL] = 0
	L2_cache_stats_breakdown[L2_WR_ALLOC_R][HIT] = 0
	L2_cache_stats_breakdown[L2_WR_ALLOC_R][HIT_RESERVED] = 0
	L2_cache_stats_breakdown[L2_WR_ALLOC_R][MISS] = 0
	L2_cache_stats_breakdown[L2_WR_ALLOC_R][RESERVATION_FAIL] = 0
	L2_cache_stats_breakdown[GLOBAL_ACC_R][TOTAL_ACCESS] = 2090
	L2_cache_stats_breakdown[CONST_ACC_R][TOTAL_ACCESS] = 28
	L2_cache_stats_breakdown[GLOBAL_ACC_W][TOTAL_ACCESS] = 17
	L2_cache_stats_breakdown[INST_ACC_R][TOTAL_ACCESS] = 85
L2_cache_data_port_util = 0.000
L2_cache_fill_port_util = 0.001

icnt_total_pkts_mem_to_simt=4706
icnt_total_pkts_simt_to_mem=2237
LD_mem_lat_dist  0 0 0 0 0 0 0 0 0 0 0 0 0 0 0 0 0 0 0 0 0 0 0 0 0 0 0
ST_mem_lat_dist  0 0 0 0 0 0 0 0 0 0 0 0 0 0 0 0 0 0 0 0 0 0 0 0 0 0 0
----------------------------Interconnect-DETAILS--------------------------------
Class 0:
Packet latency average = 30.573
	minimum = 6
	maximum = 110
Network latency average = 20.0752
	minimum = 6
	maximum = 61
Slowest packet = 27
Flit latency average = 17.5287
	minimum = 6
	maximum = 61
Slowest flit = 2916
Fragmentation average = 0
	minimum = 0
	maximum = 0
Injected packet rate average = 0.000486051
	minimum = 0.000372201 (at node 0)
	maximum = 0.000700614 (at node 1)
Accepted packet rate average = 0.000486051
	minimum = 0.000372201 (at node 0)
	maximum = 0.000700614 (at node 1)
Injected flit rate average = 0.000760056
	minimum = 0.000372201 (at node 0)
	maximum = 0.00182816 (at node 37)
Accepted flit rate average= 0.000760056
	minimum = 0.000503566 (at node 29)
	maximum = 0.00137933 (at node 1)
Injected packet length average = 1.56374
Accepted packet length average = 1.56374
Total in-flight flits = 0 (0 measured)
====== Overall Traffic Statistics ======
====== Traffic class 0 ======
Packet latency average = 30.573 (1 samples)
	minimum = 6 (1 samples)
	maximum = 110 (1 samples)
Network latency average = 20.0752 (1 samples)
	minimum = 6 (1 samples)
	maximum = 61 (1 samples)
Flit latency average = 17.5287 (1 samples)
	minimum = 6 (1 samples)
	maximum = 61 (1 samples)
Fragmentation average = 0 (1 samples)
	minimum = 0 (1 samples)
	maximum = 0 (1 samples)
Injected packet rate average = 0.000486051 (1 samples)
	minimum = 0.000372201 (1 samples)
	maximum = 0.000700614 (1 samples)
Accepted packet rate average = 0.000486051 (1 samples)
	minimum = 0.000372201 (1 samples)
	maximum = 0.000700614 (1 samples)
Injected flit rate average = 0.000760056 (1 samples)
	minimum = 0.000372201 (1 samples)
	maximum = 0.00182816 (1 samples)
Accepted flit rate average = 0.000760056 (1 samples)
	minimum = 0.000503566 (1 samples)
	maximum = 0.00137933 (1 samples)
Injected packet size average = 1.56374 (1 samples)
Accepted packet size average = 1.56374 (1 samples)
Hops average = 1 (1 samples)
----------------------------END-of-Interconnect-DETAILS-------------------------


gpgpu_simulation_time = 0 days, 0 hrs, 0 min, 41 sec (41 sec)
gpgpu_simulation_rate = 30375 (inst/sec)
gpgpu_simulation_rate = 7708 (cycle/sec)

GPGPU-Sim PTX: cudaLaunch for 0x0x401649 (mode=performance simulation) on stream 0
GPGPU-Sim PTX: pushing kernel '_Z7Kernel2PbS_S_S_i' to stream 0, gridDim= (128,1,1) blockDim = (512,1,1) 
GPGPU-Sim uArch: Shader 18 bind to kernel 2 '_Z7Kernel2PbS_S_S_i'
GPGPU-Sim uArch: CTA/core = 4, limited by: threads
GPGPU-Sim uArch: Shader 19 bind to kernel 2 '_Z7Kernel2PbS_S_S_i'
GPGPU-Sim uArch: Shader 20 bind to kernel 2 '_Z7Kernel2PbS_S_S_i'
GPGPU-Sim uArch: Shader 21 bind to kernel 2 '_Z7Kernel2PbS_S_S_i'
GPGPU-Sim uArch: Shader 22 bind to kernel 2 '_Z7Kernel2PbS_S_S_i'
GPGPU-Sim uArch: Shader 23 bind to kernel 2 '_Z7Kernel2PbS_S_S_i'
GPGPU-Sim uArch: Shader 24 bind to kernel 2 '_Z7Kernel2PbS_S_S_i'
GPGPU-Sim uArch: Shader 25 bind to kernel 2 '_Z7Kernel2PbS_S_S_i'
GPGPU-Sim uArch: Shader 26 bind to kernel 2 '_Z7Kernel2PbS_S_S_i'
GPGPU-Sim uArch: Shader 27 bind to kernel 2 '_Z7Kernel2PbS_S_S_i'
GPGPU-Sim uArch: Shader 0 bind to kernel 2 '_Z7Kernel2PbS_S_S_i'
GPGPU-Sim uArch: Shader 1 bind to kernel 2 '_Z7Kernel2PbS_S_S_i'
GPGPU-Sim uArch: Shader 2 bind to kernel 2 '_Z7Kernel2PbS_S_S_i'
GPGPU-Sim uArch: Shader 3 bind to kernel 2 '_Z7Kernel2PbS_S_S_i'
GPGPU-Sim uArch: Shader 4 bind to kernel 2 '_Z7Kernel2PbS_S_S_i'
GPGPU-Sim uArch: Shader 5 bind to kernel 2 '_Z7Kernel2PbS_S_S_i'
GPGPU-Sim uArch: Shader 6 bind to kernel 2 '_Z7Kernel2PbS_S_S_i'
GPGPU-Sim uArch: Shader 7 bind to kernel 2 '_Z7Kernel2PbS_S_S_i'
GPGPU-Sim uArch: Shader 8 bind to kernel 2 '_Z7Kernel2PbS_S_S_i'
GPGPU-Sim uArch: Shader 9 bind to kernel 2 '_Z7Kernel2PbS_S_S_i'
GPGPU-Sim uArch: Shader 10 bind to kernel 2 '_Z7Kernel2PbS_S_S_i'
GPGPU-Sim uArch: Shader 11 bind to kernel 2 '_Z7Kernel2PbS_S_S_i'
GPGPU-Sim uArch: Shader 12 bind to kernel 2 '_Z7Kernel2PbS_S_S_i'
GPGPU-Sim uArch: Shader 13 bind to kernel 2 '_Z7Kernel2PbS_S_S_i'
GPGPU-Sim uArch: Shader 14 bind to kernel 2 '_Z7Kernel2PbS_S_S_i'
GPGPU-Sim uArch: Shader 15 bind to kernel 2 '_Z7Kernel2PbS_S_S_i'
GPGPU-Sim uArch: Shader 16 bind to kernel 2 '_Z7Kernel2PbS_S_S_i'
GPGPU-Sim uArch: Shader 17 bind to kernel 2 '_Z7Kernel2PbS_S_S_i'
Destroy streams for kernel 2: size 0
kernel_name = _Z7Kernel2PbS_S_S_i 
kernel_launch_uid = 2 
gpu_sim_cycle = 2101
gpu_sim_insn = 1114192
gpu_ipc =     530.3151
gpu_tot_sim_cycle = 540286
gpu_tot_sim_insn = 2359568
gpu_tot_ipc =       4.3673
gpu_tot_issued_cta = 256
max_total_param_size = 0
gpu_stall_dramfull = 81
gpu_stall_icnt2sh    = 7801
partiton_reqs_in_parallel = 46141
partiton_reqs_in_parallel_total    = 2009678
partiton_level_parallism =      21.9614
partiton_level_parallism_total  =       3.8051
partiton_reqs_in_parallel_util = 46141
partiton_reqs_in_parallel_util_total    = 2009678
gpu_sim_cycle_parition_util = 2101
gpu_tot_sim_cycle_parition_util    = 91349
partiton_level_parallism_util =      21.9614
partiton_level_parallism_util_total  =      21.9991
partiton_replys_in_parallel = 2136
partiton_replys_in_parallel_total    = 2220
L2_BW  =      96.3630 GB/Sec
L2_BW_total  =       0.7642 GB/Sec
gpu_total_sim_rate=48154

========= Core cache stats =========
L1I_cache:
	L1I_total_cache_accesses = 43152
	L1I_total_cache_misses = 5466
	L1I_total_cache_miss_rate = 0.1267
	L1I_total_cache_pending_hits = 0
	L1I_total_cache_reservation_fails = 15846
L1D_cache:
	L1D_cache_core[0]: Access = 0, Miss = 0, Miss_rate = -nan, Pending_hits = 0, Reservation_fails = 0
	L1D_cache_core[1]: Access = 0, Miss = 0, Miss_rate = -nan, Pending_hits = 0, Reservation_fails = 0
	L1D_cache_core[2]: Access = 0, Miss = 0, Miss_rate = -nan, Pending_hits = 0, Reservation_fails = 0
	L1D_cache_core[3]: Access = 0, Miss = 0, Miss_rate = -nan, Pending_hits = 0, Reservation_fails = 0
	L1D_cache_core[4]: Access = 0, Miss = 0, Miss_rate = -nan, Pending_hits = 0, Reservation_fails = 0
	L1D_cache_core[5]: Access = 0, Miss = 0, Miss_rate = -nan, Pending_hits = 0, Reservation_fails = 0
	L1D_cache_core[6]: Access = 0, Miss = 0, Miss_rate = -nan, Pending_hits = 0, Reservation_fails = 0
	L1D_cache_core[7]: Access = 0, Miss = 0, Miss_rate = -nan, Pending_hits = 0, Reservation_fails = 0
	L1D_cache_core[8]: Access = 0, Miss = 0, Miss_rate = -nan, Pending_hits = 0, Reservation_fails = 0
	L1D_cache_core[9]: Access = 0, Miss = 0, Miss_rate = -nan, Pending_hits = 0, Reservation_fails = 0
	L1D_cache_core[10]: Access = 0, Miss = 0, Miss_rate = -nan, Pending_hits = 0, Reservation_fails = 0
	L1D_cache_core[11]: Access = 0, Miss = 0, Miss_rate = -nan, Pending_hits = 0, Reservation_fails = 0
	L1D_cache_core[12]: Access = 0, Miss = 0, Miss_rate = -nan, Pending_hits = 0, Reservation_fails = 0
	L1D_cache_core[13]: Access = 0, Miss = 0, Miss_rate = -nan, Pending_hits = 0, Reservation_fails = 0
	L1D_cache_core[14]: Access = 0, Miss = 0, Miss_rate = -nan, Pending_hits = 0, Reservation_fails = 0
	L1D_cache_core[15]: Access = 0, Miss = 0, Miss_rate = -nan, Pending_hits = 0, Reservation_fails = 0
	L1D_cache_core[16]: Access = 0, Miss = 0, Miss_rate = -nan, Pending_hits = 0, Reservation_fails = 0
	L1D_cache_core[17]: Access = 0, Miss = 0, Miss_rate = -nan, Pending_hits = 0, Reservation_fails = 0
	L1D_cache_core[18]: Access = 0, Miss = 0, Miss_rate = -nan, Pending_hits = 0, Reservation_fails = 0
	L1D_cache_core[19]: Access = 0, Miss = 0, Miss_rate = -nan, Pending_hits = 0, Reservation_fails = 0
	L1D_cache_core[20]: Access = 0, Miss = 0, Miss_rate = -nan, Pending_hits = 0, Reservation_fails = 0
	L1D_cache_core[21]: Access = 0, Miss = 0, Miss_rate = -nan, Pending_hits = 0, Reservation_fails = 0
	L1D_cache_core[22]: Access = 0, Miss = 0, Miss_rate = -nan, Pending_hits = 0, Reservation_fails = 0
	L1D_cache_core[23]: Access = 0, Miss = 0, Miss_rate = -nan, Pending_hits = 0, Reservation_fails = 0
	L1D_cache_core[24]: Access = 0, Miss = 0, Miss_rate = -nan, Pending_hits = 0, Reservation_fails = 0
	L1D_cache_core[25]: Access = 0, Miss = 0, Miss_rate = -nan, Pending_hits = 0, Reservation_fails = 0
	L1D_cache_core[26]: Access = 0, Miss = 0, Miss_rate = -nan, Pending_hits = 0, Reservation_fails = 0
	L1D_cache_core[27]: Access = 0, Miss = 0, Miss_rate = -nan, Pending_hits = 0, Reservation_fails = 0
	L1D_total_cache_accesses = 0
	L1D_total_cache_misses = 0
	L1D_total_cache_pending_hits = 0
	L1D_total_cache_reservation_fails = 0
	L1D_cache_data_port_util = 0.000
	L1D_cache_fill_port_util = 0.000
L1C_cache:
	L1C_total_cache_accesses = 24576
	L1C_total_cache_misses = 1792
	L1C_total_cache_miss_rate = 0.0729
	L1C_total_cache_pending_hits = 0
	L1C_total_cache_reservation_fails = 4886
L1T_cache:
	L1T_total_cache_accesses = 0
	L1T_total_cache_misses = 0
	L1T_total_cache_pending_hits = 0
	L1T_total_cache_reservation_fails = 0

Total_core_cache_stats:
	Total_core_cache_stats_breakdown[GLOBAL_ACC_R][HIT] = 0
	Total_core_cache_stats_breakdown[GLOBAL_ACC_R][HIT_RESERVED] = 0
	Total_core_cache_stats_breakdown[GLOBAL_ACC_R][MISS] = 0
	Total_core_cache_stats_breakdown[GLOBAL_ACC_R][RESERVATION_FAIL] = 0
	Total_core_cache_stats_breakdown[LOCAL_ACC_R][HIT] = 0
	Total_core_cache_stats_breakdown[LOCAL_ACC_R][HIT_RESERVED] = 0
	Total_core_cache_stats_breakdown[LOCAL_ACC_R][MISS] = 0
	Total_core_cache_stats_breakdown[LOCAL_ACC_R][RESERVATION_FAIL] = 0
	Total_core_cache_stats_breakdown[CONST_ACC_R][HIT] = 22784
	Total_core_cache_stats_breakdown[CONST_ACC_R][HIT_RESERVED] = 0
	Total_core_cache_stats_breakdown[CONST_ACC_R][MISS] = 1792
	Total_core_cache_stats_breakdown[CONST_ACC_R][RESERVATION_FAIL] = 4886
	Total_core_cache_stats_breakdown[TEXTURE_ACC_R][HIT] = 0
	Total_core_cache_stats_breakdown[TEXTURE_ACC_R][HIT_RESERVED] = 0
	Total_core_cache_stats_breakdown[TEXTURE_ACC_R][MISS] = 0
	Total_core_cache_stats_breakdown[TEXTURE_ACC_R][RESERVATION_FAIL] = 0
	Total_core_cache_stats_breakdown[GLOBAL_ACC_W][HIT] = 0
	Total_core_cache_stats_breakdown[GLOBAL_ACC_W][HIT_RESERVED] = 0
	Total_core_cache_stats_breakdown[GLOBAL_ACC_W][MISS] = 0
	Total_core_cache_stats_breakdown[GLOBAL_ACC_W][RESERVATION_FAIL] = 0
	Total_core_cache_stats_breakdown[LOCAL_ACC_W][HIT] = 0
	Total_core_cache_stats_breakdown[LOCAL_ACC_W][HIT_RESERVED] = 0
	Total_core_cache_stats_breakdown[LOCAL_ACC_W][MISS] = 0
	Total_core_cache_stats_breakdown[LOCAL_ACC_W][RESERVATION_FAIL] = 0
	Total_core_cache_stats_breakdown[L1_WRBK_ACC][HIT] = 0
	Total_core_cache_stats_breakdown[L1_WRBK_ACC][HIT_RESERVED] = 0
	Total_core_cache_stats_breakdown[L1_WRBK_ACC][MISS] = 0
	Total_core_cache_stats_breakdown[L1_WRBK_ACC][RESERVATION_FAIL] = 0
	Total_core_cache_stats_breakdown[L2_WRBK_ACC][HIT] = 0
	Total_core_cache_stats_breakdown[L2_WRBK_ACC][HIT_RESERVED] = 0
	Total_core_cache_stats_breakdown[L2_WRBK_ACC][MISS] = 0
	Total_core_cache_stats_breakdown[L2_WRBK_ACC][RESERVATION_FAIL] = 0
	Total_core_cache_stats_breakdown[INST_ACC_R][HIT] = 37686
	Total_core_cache_stats_breakdown[INST_ACC_R][HIT_RESERVED] = 0
	Total_core_cache_stats_breakdown[INST_ACC_R][MISS] = 5466
	Total_core_cache_stats_breakdown[INST_ACC_R][RESERVATION_FAIL] = 15846
	Total_core_cache_stats_breakdown[L1_WR_ALLOC_R][HIT] = 0
	Total_core_cache_stats_breakdown[L1_WR_ALLOC_R][HIT_RESERVED] = 0
	Total_core_cache_stats_breakdown[L1_WR_ALLOC_R][MISS] = 0
	Total_core_cache_stats_breakdown[L1_WR_ALLOC_R][RESERVATION_FAIL] = 0
	Total_core_cache_stats_breakdown[L2_WR_ALLOC_R][HIT] = 0
	Total_core_cache_stats_breakdown[L2_WR_ALLOC_R][HIT_RESERVED] = 0
	Total_core_cache_stats_breakdown[L2_WR_ALLOC_R][MISS] = 0
	Total_core_cache_stats_breakdown[L2_WR_ALLOC_R][RESERVATION_FAIL] = 0
	Total_core_cache_stats_breakdown[CONST_ACC_R][TOTAL_ACCESS] = 24576
	Total_core_cache_stats_breakdown[INST_ACC_R][TOTAL_ACCESS] = 43152
Shader 0 warp_id issue ditsribution:
warp_id:
0, 1, 2, 3, 4, 5, 6, 7, 8, 9, 10, 11, 12, 13, 14, 15, 16, 17, 18, 19, 20, 21, 22, 23, 24, 25, 26, 27, 28, 29, 30, 31, 32, 33, 34, 35, 36, 37, 38, 39, 40, 41, 42, 43, 44, 45, 46, 47, 48, 49, 50, 51, 52, 53, 54, 55, 56, 57, 58, 59, 60, 61, 62, 63, 
distro:
44, 44, 43, 44, 43, 44, 43, 44, 44, 44, 44, 44, 44, 44, 44, 44, 44, 44, 44, 44, 44, 44, 44, 44, 44, 44, 44, 44, 44, 44, 44, 44, 44, 44, 44, 44, 44, 44, 44, 44, 44, 44, 44, 44, 44, 44, 44, 44, 44, 44, 44, 44, 44, 44, 44, 44, 44, 44, 44, 44, 44, 44, 44, 44, 
gpgpu_n_tot_thrd_icount = 2499680
gpgpu_n_tot_w_icount = 78115
gpgpu_n_stall_shd_mem = 5427
gpgpu_n_mem_read_local = 0
gpgpu_n_mem_write_local = 0
gpgpu_n_mem_read_global = 4138
gpgpu_n_mem_write_global = 49
gpgpu_n_mem_texture = 0
gpgpu_n_mem_const = 28
gpgpu_n_load_insn  = 131114
gpgpu_n_store_insn = 49
gpgpu_n_shmem_insn = 0
gpgpu_n_tex_insn = 0
gpgpu_n_const_mem_insn = 0
gpgpu_n_param_mem_insn = 786432
gpgpu_n_shmem_bkconflict = 0
gpgpu_n_cache_bkconflict = 0
gpgpu_n_intrawarp_mshr_merge = 0
gpgpu_n_cmem_portconflict = 4886
gpgpu_stall_shd_mem[c_mem][bk_conf] = 4886
gpgpu_stall_shd_mem[c_mem][mshr_rc] = 0
gpgpu_stall_shd_mem[c_mem][icnt_rc] = 0
gpgpu_stall_shd_mem[c_mem][data_port_stall] = 0
gpgpu_stall_shd_mem[t_mem][mshr_rc] = 0
gpgpu_stall_shd_mem[t_mem][icnt_rc] = 0
gpgpu_stall_shd_mem[t_mem][data_port_stall] = 0
gpgpu_stall_shd_mem[s_mem][bk_conf] = 0
gpgpu_stall_shd_mem[gl_mem][bk_conf] = 0
gpgpu_stall_shd_mem[gl_mem][coal_stall] = 0
gpgpu_stall_shd_mem[gl_mem][data_port_stall] = 0
gpgpu_stall_shd_mem[g_mem_ld][mshr_rc] = 0
gpgpu_stall_shd_mem[g_mem_ld][icnt_rc] = 541
gpgpu_stall_shd_mem[g_mem_ld][wb_icnt_rc] = 0
gpgpu_stall_shd_mem[g_mem_ld][wb_rsrv_fail] = 0
gpgpu_stall_shd_mem[g_mem_st][mshr_rc] = 0
gpgpu_stall_shd_mem[g_mem_st][icnt_rc] = 0
gpgpu_stall_shd_mem[g_mem_st][wb_icnt_rc] = 0
gpgpu_stall_shd_mem[g_mem_st][wb_rsrv_fail] = 0
gpgpu_stall_shd_mem[l_mem_ld][mshr_rc] = 0
gpgpu_stall_shd_mem[l_mem_ld][icnt_rc] = 0
gpgpu_stall_shd_mem[l_mem_ld][wb_icnt_rc] = 0
gpgpu_stall_shd_mem[l_mem_ld][wb_rsrv_fail] = 0
gpgpu_stall_shd_mem[l_mem_st][mshr_rc] = 0
gpgpu_stall_shd_mem[l_mem_st][icnt_rc] = 0
gpgpu_stall_shd_mem[l_mem_ld][wb_icnt_rc] = 0
gpgpu_stall_shd_mem[l_mem_ld][wb_rsrv_fail] = 0
gpu_reg_bank_conflict_stalls = 0
Warp Occupancy Distribution:
[...]
Shader1: Tlb_access: 40256 Tlb_hit: 38666 Tlb_miss: 1590 Tlb_hit_rate: 0.960503
Shader2: Tlb_access: 40313 Tlb_hit: 38605 Tlb_miss: 1708 Tlb_hit_rate: 0.957632
Shader3: Tlb_access: 44780 Tlb_hit: 42935 Tlb_miss: 1845 Tlb_hit_rate: 0.958799
Shader4: Tlb_access: 39533 Tlb_hit: 37777 Tlb_miss: 1756 Tlb_hit_rate: 0.955581
Shader5: Tlb_access: 41391 Tlb_hit: 39662 Tlb_miss: 1729 Tlb_hit_rate: 0.958228
Shader6: Tlb_access: 44071 Tlb_hit: 42215 Tlb_miss: 1856 Tlb_hit_rate: 0.957886
Shader7: Tlb_access: 41656 Tlb_hit: 39923 Tlb_miss: 1733 Tlb_hit_rate: 0.958397
Shader8: Tlb_access: 41875 Tlb_hit: 40125 Tlb_miss: 1750 Tlb_hit_rate: 0.958209
Shader9: Tlb_access: 41502 Tlb_hit: 39746 Tlb_miss: 1756 Tlb_hit_rate: 0.957689
Shader10: Tlb_access: 45070 Tlb_hit: 43237 Tlb_miss: 1833 Tlb_hit_rate: 0.959330
Shader11: Tlb_access: 40484 Tlb_hit: 38728 Tlb_miss: 1756 Tlb_hit_rate: 0.956625
Shader12: Tlb_access: 41583 Tlb_hit: 39849 Tlb_miss: 1734 Tlb_hit_rate: 0.958300
Shader13: Tlb_access: 37759 Tlb_hit: 36149 Tlb_miss: 1610 Tlb_hit_rate: 0.957361
Shader14: Tlb_access: 41959 Tlb_hit: 40217 Tlb_miss: 1742 Tlb_hit_rate: 0.958483
Shader15: Tlb_access: 42671 Tlb_hit: 40791 Tlb_miss: 1880 Tlb_hit_rate: 0.955942
Shader16: Tlb_access: 44316 Tlb_hit: 42515 Tlb_miss: 1801 Tlb_hit_rate: 0.959360
Shader17: Tlb_access: 40937 Tlb_hit: 39206 Tlb_miss: 1731 Tlb_hit_rate: 0.957716
Shader18: Tlb_access: 41228 Tlb_hit: 39527 Tlb_miss: 1701 Tlb_hit_rate: 0.958742
Shader19: Tlb_access: 37302 Tlb_hit: 35680 Tlb_miss: 1622 Tlb_hit_rate: 0.956517
Shader20: Tlb_access: 38957 Tlb_hit: 37238 Tlb_miss: 1719 Tlb_hit_rate: 0.955874
Shader21: Tlb_access: 43322 Tlb_hit: 41570 Tlb_miss: 1752 Tlb_hit_rate: 0.959559
Shader22: Tlb_access: 39771 Tlb_hit: 38022 Tlb_miss: 1749 Tlb_hit_rate: 0.956023
Shader23: Tlb_access: 44783 Tlb_hit: 42956 Tlb_miss: 1827 Tlb_hit_rate: 0.959203
Shader24: Tlb_access: 44230 Tlb_hit: 42434 Tlb_miss: 1796 Tlb_hit_rate: 0.959394
Shader25: Tlb_access: 44527 Tlb_hit: 42756 Tlb_miss: 1771 Tlb_hit_rate: 0.960226
Shader26: Tlb_access: 45613 Tlb_hit: 43838 Tlb_miss: 1775 Tlb_hit_rate: 0.961086
Shader27: Tlb_access: 44759 Tlb_hit: 43157 Tlb_miss: 1602 Tlb_hit_rate: 0.964208
Tlb_tot_access: 1178727 Tlb_tot_hit: 1129766, Tlb_tot_miss: 48961, Tlb_tot_hit_rate: 0.958463
========================================TLB statistics(validate)==============================
Shader0: Tlb_validate: 237 Tlb_invalidate: 112 Tlb_evict: 0 Tlb_page_evict: 112
Shader1: Tlb_validate: 225 Tlb_invalidate: 112 Tlb_evict: 0 Tlb_page_evict: 112
Shader2: Tlb_validate: 240 Tlb_invalidate: 112 Tlb_evict: 0 Tlb_page_evict: 112
Shader3: Tlb_validate: 244 Tlb_invalidate: 112 Tlb_evict: 0 Tlb_page_evict: 112
Shader4: Tlb_validate: 231 Tlb_invalidate: 112 Tlb_evict: 0 Tlb_page_evict: 112
Shader5: Tlb_validate: 228 Tlb_invalidate: 112 Tlb_evict: 0 Tlb_page_evict: 112
Shader6: Tlb_validate: 243 Tlb_invalidate: 112 Tlb_evict: 0 Tlb_page_evict: 112
Shader7: Tlb_validate: 234 Tlb_invalidate: 112 Tlb_evict: 0 Tlb_page_evict: 112
Shader8: Tlb_validate: 234 Tlb_invalidate: 112 Tlb_evict: 0 Tlb_page_evict: 112
Shader9: Tlb_validate: 228 Tlb_invalidate: 112 Tlb_evict: 0 Tlb_page_evict: 112
Shader10: Tlb_validate: 239 Tlb_invalidate: 112 Tlb_evict: 0 Tlb_page_evict: 112
Shader11: Tlb_validate: 225 Tlb_invalidate: 112 Tlb_evict: 0 Tlb_page_evict: 112
Shader12: Tlb_validate: 233 Tlb_invalidate: 112 Tlb_evict: 0 Tlb_page_evict: 112
Shader13: Tlb_validate: 219 Tlb_invalidate: 112 Tlb_evict: 0 Tlb_page_evict: 112
Shader14: Tlb_validate: 238 Tlb_invalidate: 112 Tlb_evict: 0 Tlb_page_evict: 112
Shader15: Tlb_validate: 238 Tlb_invalidate: 112 Tlb_evict: 0 Tlb_page_evict: 112
Shader16: Tlb_validate: 238 Tlb_invalidate: 112 Tlb_evict: 0 Tlb_page_evict: 112
Shader17: Tlb_validate: 231 Tlb_invalidate: 112 Tlb_evict: 0 Tlb_page_evict: 112
Shader18: Tlb_validate: 217 Tlb_invalidate: 111 Tlb_evict: 0 Tlb_page_evict: 111
Shader19: Tlb_validate: 226 Tlb_invalidate: 112 Tlb_evict: 0 Tlb_page_evict: 112
Shader20: Tlb_validate: 224 Tlb_invalidate: 112 Tlb_evict: 0 Tlb_page_evict: 112
Shader21: Tlb_validate: 229 Tlb_invalidate: 112 Tlb_evict: 0 Tlb_page_evict: 112
Shader22: Tlb_validate: 236 Tlb_invalidate: 112 Tlb_evict: 0 Tlb_page_evict: 112
Shader23: Tlb_validate: 227 Tlb_invalidate: 112 Tlb_evict: 0 Tlb_page_evict: 112
Shader24: Tlb_validate: 229 Tlb_invalidate: 112 Tlb_evict: 0 Tlb_page_evict: 112
Shader25: Tlb_validate: 228 Tlb_invalidate: 112 Tlb_evict: 0 Tlb_page_evict: 112
Shader26: Tlb_validate: 231 Tlb_invalidate: 112 Tlb_evict: 0 Tlb_page_evict: 112
Shader27: Tlb_validate: 235 Tlb_invalidate: 112 Tlb_evict: 0 Tlb_page_evict: 112
Tlb_tot_valiate: 6487 Tlb_invalidate: 3135, Tlb_tot_evict: 0, Tlb_tot_evict page: 3135
========================================TLB statistics(threshing)==============================
Shader0: Total 0
Shader1: Total 0
Shader2: Total 0
Shader3: Total 0
Shader4: Total 0
Shader5: Total 0
Shader6: Total 0
Shader7: Total 0
Shader8: Total 0
Shader9: Total 0
Shader10: Total 0
Shader11: Total 0
Shader12: Total 0
Shader13: Total 0
Shader14: Total 0
Shader15: Total 0
Shader16: Total 0
Shader17: Total 0
Shader18: Total 0
Shader19: Total 0
Shader20: Total 0
Shader21: Total 0
Shader22: Total 0
Shader23: Total 0
Shader24: Total 0
Shader25: Total 0
Shader26: Total 0
Shader27: Total 0
Tlb_tot_thresh: 0
========================================Page fault statistics==============================
Shader0: Page_table_access:1837 Page_hit: 1770 Page_miss: 67 Page_hit_rate: 0.963528
Shader1: Page_table_access:1590 Page_hit: 1501 Page_miss: 89 Page_hit_rate: 0.944025
Shader2: Page_table_access:1708 Page_hit: 1609 Page_miss: 99 Page_hit_rate: 0.942037
Shader3: Page_table_access:1845 Page_hit: 1778 Page_miss: 67 Page_hit_rate: 0.963686
Shader4: Page_table_access:1756 Page_hit: 1660 Page_miss: 96 Page_hit_rate: 0.945330
Shader5: Page_table_access:1729 Page_hit: 1646 Page_miss: 83 Page_hit_rate: 0.951995
Shader6: Page_table_access:1856 Page_hit: 1791 Page_miss: 65 Page_hit_rate: 0.964978
Shader7: Page_table_access:1733 Page_hit: 1653 Page_miss: 80 Page_hit_rate: 0.953837
Shader8: Page_table_access:1750 Page_hit: 1668 Page_miss: 82 Page_hit_rate: 0.953143
Shader9: Page_table_access:1756 Page_hit: 1676 Page_miss: 80 Page_hit_rate: 0.954442
Shader10: Page_table_access:1833 Page_hit: 1750 Page_miss: 83 Page_hit_rate: 0.954719
Shader11: Page_table_access:1756 Page_hit: 1676 Page_miss: 80 Page_hit_rate: 0.954442
Shader12: Page_table_access:1734 Page_hit: 1650 Page_miss: 84 Page_hit_rate: 0.951557
Shader13: Page_table_access:1610 Page_hit: 1528 Page_miss: 82 Page_hit_rate: 0.949068
Shader14: Page_table_access:1742 Page_hit: 1656 Page_miss: 86 Page_hit_rate: 0.950631
Shader15: Page_table_access:1880 Page_hit: 1799 Page_miss: 81 Page_hit_rate: 0.956915
Shader16: Page_table_access:1801 Page_hit: 1716 Page_miss: 85 Page_hit_rate: 0.952804
Shader17: Page_table_access:1731 Page_hit: 1647 Page_miss: 84 Page_hit_rate: 0.951473
Shader18: Page_table_access:1701 Page_hit: 1635 Page_miss: 66 Page_hit_rate: 0.961199
Shader19: Page_table_access:1622 Page_hit: 1554 Page_miss: 68 Page_hit_rate: 0.958076
Shader20: Page_table_access:1719 Page_hit: 1655 Page_miss: 64 Page_hit_rate: 0.962769
Shader21: Page_table_access:1752 Page_hit: 1680 Page_miss: 72 Page_hit_rate: 0.958904
Shader22: Page_table_access:1749 Page_hit: 1683 Page_miss: 66 Page_hit_rate: 0.962264
Shader23: Page_table_access:1827 Page_hit: 1763 Page_miss: 64 Page_hit_rate: 0.964970
Shader24: Page_table_access:1796 Page_hit: 1729 Page_miss: 67 Page_hit_rate: 0.962695
Shader25: Page_table_access:1771 Page_hit: 1700 Page_miss: 71 Page_hit_rate: 0.959910
Shader26: Page_table_access:1775 Page_hit: 1706 Page_miss: 69 Page_hit_rate: 0.961127
Shader27: Page_table_access:1602 Page_hit: 1530 Page_miss: 72 Page_hit_rate: 0.955056
Page_talbe_tot_access: 48961 Page_tot_hit: 46809, Page_tot_miss 2152, Page_tot_hit_rate: 0.956047 Page_tot_fault: 40 Page_tot_pending: 2112
Total_memory_access_page_fault: 40, Average_latency: 999830.125000
========================================Page threshing statistics==============================
Page_validate: 624 Page_evict_diry: 0 Page_evict_not_diry: 0
Page_tot_thresh: 0
========================================Memory access statistics==============================
========================================Prefetch statistics==============================
Tot_page_hit: 0, Tot_page_miss: 0, Tot_page_fault: 0
Avg_page_latency: 0.000000, Avg_prefetch_size: -nan, Avg_prefetch_latency: 0.000000
========================================Rdma statistics==============================
Rdma_read: 0
Rdma_migration_read 0
Rdma_migration_write 0
========================================PCI-e statistics==============================
Pcie_read_utilization: 0.542048
[0-25]: 0.064079, [26-50]: 0.138219, [51-75]: 0.797702, [76-100]: 0.000000
Pcie_write_utilization: 0.000000
[0-25]: -nan, [26-50]: -nan, [51-75]: -nan, [76-100]: -nan
F:        0----T:     2535 	 St: 80000000 Sz: 1 	 Sm: 0 	 T: memcpy_h2d(1.711681)
F:   224686----T:   316035 	 	 	 Kl: 1 	 Sm: 0 	 T: kernel_launch(61.680622)
F:   225609----T:   229039 	 St: c0080000 Sz: 16384 	 Sm: 0 	 T: memcpy_h2d(2.316003)
F:   229039----T:   235904 	 St: c0084000 Sz: 49152 	 Sm: 0 	 T: memcpy_h2d(4.635382)
F:   235904----T:   238509 	 St: c0000000 Sz: 4096 	 Sm: 0 	 T: memcpy_h2d(1.758947)
F:   238509----T:   246749 	 St: c0001000 Sz: 61440 	 Sm: 0 	 T: memcpy_h2d(5.563808)
F:   246749----T:   249354 	 St: c00b0000 Sz: 4096 	 Sm: 0 	 T: memcpy_h2d(1.758947)
F:   249354----T:   257594 	 St: c00b1000 Sz: 61440 	 Sm: 0 	 T: memcpy_h2d(5.563808)
F:   257594----T:   261024 	 St: c00a0000 Sz: 16384 	 Sm: 0 	 T: memcpy_h2d(2.316003)
F:   261024----T:   267889 	 St: c00a4000 Sz: 49152 	 Sm: 0 	 T: memcpy_h2d(4.635382)
F:   267889----T:   270494 	 St: c02b0000 Sz: 4096 	 Sm: 0 	 T: memcpy_h2d(1.758947)
F:   270494----T:   278734 	 St: c02b1000 Sz: 61440 	 Sm: 0 	 T: memcpy_h2d(5.563808)
F:   278734----T:   282164 	 St: c0090000 Sz: 16384 	 Sm: 0 	 T: memcpy_h2d(2.316003)
F:   282164----T:   289029 	 St: c0094000 Sz: 49152 	 Sm: 0 	 T: memcpy_h2d(4.635382)
F:   289029----T:   297269 	 St: c02e0000 Sz: 61440 	 Sm: 0 	 T: memcpy_h2d(5.563808)
F:   297269----T:   299874 	 St: c02ef000 Sz: 4096 	 Sm: 0 	 T: memcpy_h2d(1.758947)
F:   299874----T:   302479 	 St: c02d0000 Sz: 4096 	 Sm: 0 	 T: memcpy_h2d(1.758947)
F:   302479----T:   310719 	 St: c02d1000 Sz: 61440 	 Sm: 0 	 T: memcpy_h2d(5.563808)
F:   310719----T:   315793 	 St: c02c0000 Sz: 32768 	 Sm: 0 	 T: memcpy_h2d(3.426064)
F:   315793----T:   320867 	 St: c02c8000 Sz: 32768 	 Sm: 0 	 T: memcpy_h2d(3.426064)
F:   538185----T:   540286 	 	 	 Kl: 2 	 Sm: 0 	 T: kernel_launch(1.418636)
F:   540286----T:   542821 	 St: 80000000 Sz: 1 	 Sm: 0 	 T: memcpy_d2h(1.711681)
F:   542822----T:   545357 	 St: 80000000 Sz: 1 	 Sm: 0 	 T: memcpy_h2d(1.711681)
F:   767508----T:   891674 	 	 	 Kl: 3 	 Sm: 0 	 T: kernel_launch(83.839294)
F:   768171----T:   771983 	 St: c0010000 Sz: 20480 	 Sm: 0 	 T: memcpy_h2d(2.573936)
F:   771983----T:   778395 	 St: c0015000 Sz: 45056 	 Sm: 0 	 T: memcpy_h2d(4.329507)
F:   778395----T:   783910 	 St: c0020000 Sz: 36864 	 Sm: 0 	 T: memcpy_h2d(3.723835)
F:   783910----T:   788551 	 St: c0029000 Sz: 28672 	 Sm: 0 	 T: memcpy_h2d(3.133693)
F:   788551----T:   793192 	 St: c0040000 Sz: 28672 	 Sm: 0 	 T: memcpy_h2d(3.133693)
F:   793192----T:   798707 	 St: c0047000 Sz: 36864 	 Sm: 0 	 T: memcpy_h2d(3.723835)
F:   798707----T:   803781 	 St: c0070000 Sz: 32768 	 Sm: 0 	 T: memcpy_h2d(3.426064)
F:   803781----T:   807593 	 St: c0078000 Sz: 20480 	 Sm: 0 	 T: memcpy_h2d(2.573936)
F:   807593----T:   810679 	 St: c007d000 Sz: 12288 	 Sm: 0 	 T: memcpy_h2d(2.083727)
F:   810679----T:   818459 	 St: c00e0000 Sz: 57344 	 Sm: 0 	 T: memcpy_h2d(5.253207)
F:   818459----T:   821259 	 St: c00ee000 Sz: 8192 	 Sm: 0 	 T: memcpy_h2d(1.890614)
F:   821259----T:   829961 	 St: c00f0000 Sz: 65536 	 Sm: 0 	 T: memcpy_h2d(5.875760)
F:   829961----T:   835922 	 St: c0120000 Sz: 40960 	 Sm: 0 	 T: memcpy_h2d(4.024983)
F:   835922----T:   840141 	 St: c012a000 Sz: 24576 	 Sm: 0 	 T: memcpy_h2d(2.848751)
F:   840141----T:   848381 	 St: c0130000 Sz: 61440 	 Sm: 0 	 T: memcpy_h2d(5.563808)
F:   848381----T:   850986 	 St: c013f000 Sz: 4096 	 Sm: 0 	 T: memcpy_h2d(1.758947)
F:   850986----T:   855205 	 St: c0170000 Sz: 24576 	 Sm: 0 	 T: memcpy_h2d(2.848751)
F:   855205----T:   861166 	 St: c0176000 Sz: 40960 	 Sm: 0 	 T: memcpy_h2d(4.024983)
F:   861166----T:   864596 	 St: c0180000 Sz: 16384 	 Sm: 0 	 T: memcpy_h2d(2.316003)
F:   864596----T:   871461 	 St: c0184000 Sz: 49152 	 Sm: 0 	 T: memcpy_h2d(4.635382)
F:   871461----T:   876102 	 St: c0210000 Sz: 28672 	 Sm: 0 	 T: memcpy_h2d(3.133693)
F:   876102----T:   881617 	 St: c0217000 Sz: 36864 	 Sm: 0 	 T: memcpy_h2d(3.723835)
F:   881617----T:   885836 	 St: c0220000 Sz: 24576 	 Sm: 0 	 T: memcpy_h2d(2.848751)
F:   885836----T:   891797 	 St: c0226000 Sz: 40960 	 Sm: 0 	 T: memcpy_h2d(4.024983)
F:  1113824----T:  1115125 	 	 	 Kl: 4 	 Sm: 0 	 T: kernel_launch(0.878461)
F:  1115125----T:  1117660 	 St: 80000000 Sz: 1 	 Sm: 0 	 T: memcpy_d2h(1.711681)
F:  1117661----T:  1120196 	 St: 80000000 Sz: 1 	 Sm: 0 	 T: memcpy_h2d(1.711681)
F:  1342347----T:  1514875 	 	 	 Kl: 5 	 Sm: 0 	 T: kernel_launch(116.494263)
F:  1343033----T:  1346119 	 St: c0030000 Sz: 12288 	 Sm: 0 	 T: memcpy_h2d(2.083727)
F:  1346119----T:  1353441 	 St: c0033000 Sz: 53248 	 Sm: 0 	 T: memcpy_h2d(4.943957)
F:  1353441----T:  1356871 	 St: c0050000 Sz: 16384 	 Sm: 0 	 T: memcpy_h2d(2.316003)
F:  1356871----T:  1363736 	 St: c0054000 Sz: 49152 	 Sm: 0 	 T: memcpy_h2d(4.635382)
F:  1363736----T:  1370148 	 St: c0060000 Sz: 45056 	 Sm: 0 	 T: memcpy_h2d(4.329507)
F:  1370148----T:  1373960 	 St: c006b000 Sz: 20480 	 Sm: 0 	 T: memcpy_h2d(2.573936)
F:  1373960----T:  1379475 	 St: c00d0000 Sz: 36864 	 Sm: 0 	 T: memcpy_h2d(3.723835)
F:  1379475----T:  1384116 	 St: c00d9000 Sz: 28672 	 Sm: 0 	 T: memcpy_h2d(3.133693)
F:  1384116----T:  1388757 	 St: c00c0000 Sz: 28672 	 Sm: 0 	 T: memcpy_h2d(3.133693)
F:  1388757----T:  1394272 	 St: c00c7000 Sz: 36864 	 Sm: 0 	 T: memcpy_h2d(3.723835)
F:  1394272----T:  1401137 	 St: c0100000 Sz: 49152 	 Sm: 0 	 T: memcpy_h2d(4.635382)
F:  1401137----T:  1404567 	 St: c010c000 Sz: 16384 	 Sm: 0 	 T: memcpy_h2d(2.316003)
F:  1404567----T:  1407172 	 St: c0110000 Sz: 4096 	 Sm: 0 	 T: memcpy_h2d(1.758947)
F:  1407172----T:  1415412 	 St: c0111000 Sz: 61440 	 Sm: 0 	 T: memcpy_h2d(5.563808)
F:  1415412----T:  1422277 	 St: c0190000 Sz: 49152 	 Sm: 0 	 T: memcpy_h2d(4.635382)
F:  1422277----T:  1425707 	 St: c019c000 Sz: 16384 	 Sm: 0 	 T: memcpy_h2d(2.316003)
F:  1425707----T:  1428312 	 St: c01a0000 Sz: 4096 	 Sm: 0 	 T: memcpy_h2d(1.758947)
F:  1428312----T:  1436552 	 St: c01a1000 Sz: 61440 	 Sm: 0 	 T: memcpy_h2d(5.563808)
F:  1436552----T:  1439157 	 St: c0200000 Sz: 4096 	 Sm: 0 	 T: memcpy_h2d(1.758947)
F:  1439157----T:  1447397 	 St: c0201000 Sz: 61440 	 Sm: 0 	 T: memcpy_h2d(5.563808)
F:  1447397----T:  1452038 	 St: c0140000 Sz: 28672 	 Sm: 0 	 T: memcpy_h2d(3.133693)
F:  1452038----T:  1457553 	 St: c0147000 Sz: 36864 	 Sm: 0 	 T: memcpy_h2d(3.723835)
F:  1457553----T:  1464875 	 St: c0150000 Sz: 53248 	 Sm: 0 	 T: memcpy_h2d(4.943957)
F:  1464875----T:  1467961 	 St: c015d000 Sz: 12288 	 Sm: 0 	 T: memcpy_h2d(2.083727)
F:  1467961----T:  1470761 	 St: c01c0000 Sz: 8192 	 Sm: 0 	 T: memcpy_h2d(1.890614)
F:  1470761----T:  1478541 	 St: c01c2000 Sz: 57344 	 Sm: 0 	 T: memcpy_h2d(5.253207)
F:  1478541----T:  1486781 	 St: c01e0000 Sz: 61440 	 Sm: 0 	 T: memcpy_h2d(5.563808)
F:  1486781----T:  1489386 	 St: c01ef000 Sz: 4096 	 Sm: 0 	 T: memcpy_h2d(1.758947)
F:  1489386----T:  1497166 	 St: c01d0000 Sz: 57344 	 Sm: 0 	 T: memcpy_h2d(5.253207)
F:  1497166----T:  1499966 	 St: c01de000 Sz: 8192 	 Sm: 0 	 T: memcpy_h2d(1.890614)
F:  1499966----T:  1504607 	 St: c01f0000 Sz: 28672 	 Sm: 0 	 T: memcpy_h2d(3.133693)
F:  1504607----T:  1510122 	 St: c01f7000 Sz: 36864 	 Sm: 0 	 T: memcpy_h2d(3.723835)
F:  1737025----T:  1738459 	 	 	 Kl: 6 	 Sm: 0 	 T: kernel_launch(0.968265)
F:  1738459----T:  1740994 	 St: 80000000 Sz: 1 	 Sm: 0 	 T: memcpy_d2h(1.711681)
F:  1740995----T:  1743530 	 St: 80000000 Sz: 1 	 Sm: 0 	 T: memcpy_h2d(1.711681)
F:  1965681----T:  1993175 	 	 	 Kl: 7 	 Sm: 0 	 T: kernel_launch(18.564484)
F:  1966983----T:  1972057 	 St: c0160000 Sz: 32768 	 Sm: 0 	 T: memcpy_h2d(3.426064)
F:  1972057----T:  1977131 	 St: c0168000 Sz: 32768 	 Sm: 0 	 T: memcpy_h2d(3.426064)
F:  1977131----T:  1984453 	 St: c01b0000 Sz: 53248 	 Sm: 0 	 T: memcpy_h2d(4.943957)
F:  1984453----T:  1987539 	 St: c01bd000 Sz: 12288 	 Sm: 0 	 T: memcpy_h2d(2.083727)
F:  2215325----T:  2218275 	 	 	 Kl: 8 	 Sm: 0 	 T: kernel_launch(1.991897)
F:  2218275----T:  2220810 	 St: 80000000 Sz: 1 	 Sm: 0 	 T: memcpy_d2h(1.711681)
F:  2220811----T:  2223346 	 St: 80000000 Sz: 1 	 Sm: 0 	 T: memcpy_h2d(1.711681)
F:  2445497----T:  2466199 	 	 	 Kl: 9 	 Sm: 0 	 T: kernel_launch(13.978393)
F:  2688349----T:  2692630 	 	 	 Kl: 10 	 Sm: 0 	 T: kernel_launch(2.890615)
F:  2692630----T:  2695165 	 St: 80000000 Sz: 1 	 Sm: 0 	 T: memcpy_d2h(1.711681)
F:  2695166----T:  2697701 	 St: 80000000 Sz: 1 	 Sm: 0 	 T: memcpy_h2d(1.711681)
F:  2919852----T:  2975114 	 	 	 Kl: 11 	 Sm: 0 	 T: kernel_launch(37.313976)
F:  3197264----T:  3201620 	 	 	 Kl: 12 	 Sm: 0 	 T: kernel_launch(2.941256)
F:  3201620----T:  3204155 	 St: 80000000 Sz: 1 	 Sm: 0 	 T: memcpy_d2h(1.711681)
F:  3204156----T:  3206691 	 St: 80000000 Sz: 1 	 Sm: 0 	 T: memcpy_h2d(1.711681)
F:  3428842----T:  3516692 	 	 	 Kl: 13 	 Sm: 0 	 T: kernel_launch(59.318027)
F:  3738842----T:  3743182 	 	 	 Kl: 14 	 Sm: 0 	 T: kernel_launch(2.930452)
F:  3743182----T:  3745717 	 St: 80000000 Sz: 1 	 Sm: 0 	 T: memcpy_d2h(1.711681)
F:  3745718----T:  3748253 	 St: 80000000 Sz: 1 	 Sm: 0 	 T: memcpy_h2d(1.711681)
F:  3970404----T:  4004010 	 	 	 Kl: 15 	 Sm: 0 	 T: kernel_launch(22.691425)
F:  4226160----T:  4228212 	 	 	 Kl: 16 	 Sm: 0 	 T: kernel_launch(1.385550)
F:  4228212----T:  4230747 	 St: 80000000 Sz: 1 	 Sm: 0 	 T: memcpy_d2h(1.711681)
F:  4230748----T:  4233283 	 St: 80000000 Sz: 1 	 Sm: 0 	 T: memcpy_h2d(1.711681)
F:  4455434----T:  4460633 	 	 	 Kl: 17 	 Sm: 0 	 T: kernel_launch(3.510466)
F:  4682783----T:  4683878 	 	 	 Kl: 18 	 Sm: 0 	 T: kernel_launch(0.739365)
F:  4683878----T:  4686413 	 St: 80000000 Sz: 1 	 Sm: 0 	 T: memcpy_d2h(1.711681)
F:  4686414----T:  4688949 	 St: 80000000 Sz: 1 	 Sm: 0 	 T: memcpy_h2d(1.711681)
F:  4911100----T:  4913325 	 	 	 Kl: 19 	 Sm: 0 	 T: kernel_launch(1.502363)
F:  5135475----T:  5136442 	 	 	 Kl: 20 	 Sm: 0 	 T: kernel_launch(0.652937)
F:  5136442----T:  5138977 	 St: 80000000 Sz: 1 	 Sm: 0 	 T: memcpy_d2h(1.711681)
F:  5138978----T:  5141583 	 St: 0 Sz: 4096 	 Sm: 0 	 T: device_sync(1.758947)
F:  5138978----T:  5147218 	 St: 0 Sz: 61440 	 Sm: 0 	 T: device_sync(5.563808)
F:  5149823----T:  5152428 	 St: 0 Sz: 4096 	 Sm: 0 	 T: device_sync(1.758947)
F:  5149823----T:  5158063 	 St: 0 Sz: 61440 	 Sm: 0 	 T: device_sync(5.563808)
F:  5160668----T:  5163273 	 St: 0 Sz: 4096 	 Sm: 0 	 T: device_sync(1.758947)
F:  5160668----T:  5176363 	 St: 0 Sz: 126976 	 Sm: 0 	 T: device_sync(10.597569)
F:  5178968----T:  5181573 	 St: 0 Sz: 4096 	 Sm: 0 	 T: device_sync(1.758947)
F:  5178968----T:  5202171 	 St: 0 Sz: 192512 	 Sm: 0 	 T: device_sync(15.667117)
Tot_prefetch_time: 0(cycle), 0.000000(us)
Tot_kernel_exec_time: 645258(cycle), 435.690735(us)
Tot_kernel_exec_time_and_fault_time: 3311058(cycle), 2235.690674(us)
Tot_memcpy_h2d_time: 431879(cycle), 291.613098(us)
Tot_memcpy_d2h_time: 25350(cycle), 17.116814(us)
Tot_memcpy_time: 457229(cycle), 308.729919(us)
Tot_devicesync_time: 65798(cycle), 44.428089(us)
Tot_writeback_time: 0(cycle), 0.000000(us)
Tot_rdma_time: 0(cycle), 0.000000(us)
Tot_memcpy_d2h_sync_wb_time: 91148(cycle), 61.544903(us)
GPGPU-Sim: *** exit detected ***
