

        *** GPGPU-Sim Simulator Version 3.2.2  [build gpgpu-sim_git-commit-3860d9b353b66e89e1a9ca14f6569fffcf247a15_modified_0] ***


GPGPU-Sim PTX: simulation mode 0 (can change with PTX_SIM_MODE_FUNC environment variable:
               1=functional simulation only, 0=detailed performance simulator)
GPGPU-Sim: Configuration options:

-network_mode                           1 # Interconnection network mode
-inter_config_file   config_fermi_islip.icnt # Interconnection network config file
-gpgpu_ptx_use_cuobjdump                    1 # Use cuobjdump to extract ptx and sass from binaries
-gpgpu_experimental_lib_support                    0 # Try to extract code from cuda libraries [Broken because of unknown cudaGetExportTable]
-gpgpu_ptx_convert_to_ptxplus                    0 # Convert SASS (native ISA) to ptxplus and run ptxplus
-gpgpu_ptx_force_max_capability                   20 # Force maximum compute capability
-gpgpu_ptx_inst_debug_to_file                    0 # Dump executed instructions' debug information to file
-gpgpu_ptx_inst_debug_file       inst_debug.txt # Executed instructions' debug output file
-gpgpu_ptx_inst_debug_thread_uid                    1 # Thread UID for executed instructions' debug output
-gpgpu_simd_model                       1 # 1 = post-dominator
-gpgpu_shader_core_pipeline              2048:32 # shader core pipeline config, i.e., {<nthread>:<warpsize>}
-gpgpu_tex_cache:l1  16:128:24,L:R:m:N:L,F:128:4,128:2 # per-shader L1 texture cache  (READ-ONLY) config  {<nsets>:<bsize>:<assoc>,<rep>:<wr>:<alloc>:<wr_alloc>,<mshr>:<N>:<merge>,<mq>:<rf>}
-gpgpu_const_cache:l1 128:64:2,L:R:f:N:L,A:2:64,4 # per-shader L1 constant memory cache  (READ-ONLY) config  {<nsets>:<bsize>:<assoc>,<rep>:<wr>:<alloc>:<wr_alloc>,<mshr>:<N>:<merge>,<mq>} 
-gpgpu_cache:il1     8:128:4,L:R:f:N:L,A:2:48,4 # shader L1 instruction cache config  {<nsets>:<bsize>:<assoc>,<rep>:<wr>:<alloc>:<wr_alloc>,<mshr>:<N>:<merge>,<mq>} 
-gpgpu_cache:dl1     64:128:6,L:L:m:N:H,A:128:8,8 # per-shader L1 data cache config  {<nsets>:<bsize>:<assoc>,<rep>:<wr>:<alloc>:<wr_alloc>,<mshr>:<N>:<merge>,<mq> | none}
-gpgpu_cache:dl1PrefL1                 none # per-shader L1 data cache config  {<nsets>:<bsize>:<assoc>,<rep>:<wr>:<alloc>:<wr_alloc>,<mshr>:<N>:<merge>,<mq> | none}
-gpgpu_cache:dl1PrefShared                 none # per-shader L1 data cache config  {<nsets>:<bsize>:<assoc>,<rep>:<wr>:<alloc>:<wr_alloc>,<mshr>:<N>:<merge>,<mq> | none}
-gmem_skip_L1D                          1 # global memory access skip L1D cache (implements -Xptxas -dlcm=cg, default=no skip)
-gpgpu_perfect_mem                      0 # enable perfect memory mode (no cache miss)
-n_regfile_gating_group                    4 # group of lanes that should be read/written together)
-gpgpu_clock_gated_reg_file                    0 # enable clock gated reg file for power calculations
-gpgpu_clock_gated_lanes                    0 # enable clock gated lanes for power calculations
-gpgpu_shader_registers                65536 # Number of registers per shader core. Limits number of concurrent CTAs. (default 8192)
-gpgpu_shader_cta                      32 # Maximum number of concurrent CTAs in shader (default 8)
-gpgpu_num_cta_barriers                   16 # Maximum number of named barriers per CTA (default 16)
-gpgpu_n_clusters                      28 # number of processing clusters
-gpgpu_n_cores_per_cluster                    1 # number of simd cores per cluster
-gpgpu_n_cluster_ejection_buffer_size                    8 # number of packets in ejection buffer
-gpgpu_n_ldst_response_buffer_size                    2 # number of response packets in ld/st unit ejection buffer
-gpgpu_shmem_size                   16384 # Size of shared memory per shader core (default 16kB)
-gpgpu_shmem_size                   98304 # Size of shared memory per shader core (default 16kB)
-gpgpu_shmem_size_PrefL1                16384 # Size of shared memory per shader core (default 16kB)
-gpgpu_shmem_size_PrefShared                16384 # Size of shared memory per shader core (default 16kB)
-gpgpu_shmem_num_banks                   32 # Number of banks in the shared memory in each shader core (default 16)
-gpgpu_shmem_limited_broadcast                    0 # Limit shared memory to do one broadcast per cycle (default on)
-gpgpu_shmem_warp_parts                    1 # Number of portions a warp is divided into for shared memory bank conflict check 
-gpgpu_warpdistro_shader                   -1 # Specify which shader core to collect the warp size distribution from
-gpgpu_warp_issue_shader                    0 # Specify which shader core to collect the warp issue distribution from
-gpgpu_local_mem_map                    1 # Mapping from local memory space address to simulated GPU physical address space (default = enabled)
-gpgpu_num_reg_banks                   32 # Number of register banks (default = 8)
-gpgpu_reg_bank_use_warp_id                    0 # Use warp ID in mapping registers to banks (default = off)
-gpgpu_operand_collector_num_units_sp                   20 # number of collector units (default = 4)
-gpgpu_operand_collector_num_units_sfu                    4 # number of collector units (default = 4)
-gpgpu_operand_collector_num_units_mem                    8 # number of collector units (default = 2)
-gpgpu_operand_collector_num_units_gen                    0 # number of collector units (default = 0)
-gpgpu_operand_collector_num_in_ports_sp                    4 # number of collector unit in ports (default = 1)
-gpgpu_operand_collector_num_in_ports_sfu                    1 # number of collector unit in ports (default = 1)
-gpgpu_operand_collector_num_in_ports_mem                    1 # number of collector unit in ports (default = 1)
-gpgpu_operand_collector_num_in_ports_gen                    0 # number of collector unit in ports (default = 0)
-gpgpu_operand_collector_num_out_ports_sp                    4 # number of collector unit in ports (default = 1)
-gpgpu_operand_collector_num_out_ports_sfu                    1 # number of collector unit in ports (default = 1)
-gpgpu_operand_collector_num_out_ports_mem                    1 # number of collector unit in ports (default = 1)
-gpgpu_operand_collector_num_out_ports_gen                    0 # number of collector unit in ports (default = 0)
-gpgpu_coalesce_arch                   13 # Coalescing arch (default = 13, anything else is off for now)
-gpgpu_num_sched_per_core                    2 # Number of warp schedulers per core
-gpgpu_max_insn_issue_per_warp                    2 # Max number of instructions that can be issued per warp in one cycle by scheduler
-gpgpu_simt_core_sim_order                    1 # Select the simulation order of cores in a cluster (0=Fix, 1=Round-Robin)
-gpgpu_pipeline_widths        4,1,1,4,1,1,6 # Pipeline widths ID_OC_SP,ID_OC_SFU,ID_OC_MEM,OC_EX_SP,OC_EX_SFU,OC_EX_MEM,EX_WB
-gpgpu_num_sp_units                     4 # Number of SP units (default=1)
-gpgpu_num_sfu_units                    1 # Number of SF units (default=1)
-gpgpu_num_mem_units                    1 # Number if ldst units (default=1) WARNING: not hooked up to anything
-gpgpu_scheduler                      gto # Scheduler configuration: < lrr | gto | two_level_active > If two_level_active:<num_active_warps>:<inner_prioritization>:<outer_prioritization>For complete list of prioritization values see shader.h enum scheduler_prioritization_typeDefault: gto
-gpgpu_concurrent_kernel_sm                    0 # Support concurrent kernels on a SM (default = disabled)
-tlb_size                            4096 # Number of tlb entries per SM.
-gpgpu_dram_scheduler                    1 # 0 = fifo, 1 = FR-FCFS (defaul)
-gpgpu_dram_partition_queues              8:8:8:8 # i2$:$2d:d2$:$2i
-l2_ideal                               0 # Use a ideal L2 cache that always hit
-gpgpu_cache:dl2     64:128:16,L:B:m:W:L,A:1024:1024,4:0,32 # unified banked L2 data cache config  {<nsets>:<bsize>:<assoc>,<rep>:<wr>:<alloc>:<wr_alloc>,<mshr>:<N>:<merge>,<mq>}
-gpgpu_cache:dl2_texture_only                    0 # L2 cache used for texture only
-gpgpu_n_mem                           11 # number of memory modules (e.g. memory controllers) in gpu
-gpgpu_n_sub_partition_per_mchannel                    2 # number of memory subpartition in each memory module
-gpgpu_n_mem_per_ctrlr                    1 # number of memory chips per memory controller
-gpgpu_memlatency_stat                   14 # track and display latency statistics 0x2 enables MC, 0x4 enables queue logs
-gpgpu_frfcfs_dram_sched_queue_size                   64 # 0 = unlimited (default); # entries per chip
-gpgpu_dram_return_queue_size                  116 # 0 = unlimited (default); # entries per chip
-gpgpu_dram_buswidth                    4 # default = 4 bytes (8 bytes per cycle at DDR)
-gpgpu_dram_burst_length                    8 # Burst length of each DRAM request (default = 4 data bus cycle)
-dram_data_command_freq_ratio                    4 # Frequency ratio between DRAM data bus and command bus (default = 2 times, i.e. DDR)
-gpgpu_dram_timing_opt nbk=16:CCD=2:RRD=6:RCD=12:RAS=28:RP=12:RC=40: CL=12:WL=4:CDLR=5:WR=12:nbkgrp=1:CCDL=0:RTPL=0 # DRAM timing parameters = {nbk:tCCD:tRRD:tRCD:tRAS:tRP:tRC:CL:WL:tCDLR:tWR:nbkgrp:tCCDL:tRTPL}
-rop_latency                          120 # ROP queue latency (default 85)
-dram_latency                         100 # DRAM latency (default 30)
-gpgpu_mem_addr_mapping dramid@8;00000000.00000000.00000000.00000000.0000RRRR.RRRRRRRR.RBBBCCCC.BCCSSSSS # mapping memory address to dram model {dramid@<start bit>;<memory address map>}
-gpgpu_mem_addr_test                    0 # run sweep test to check address mapping for aliased address
-gpgpu_mem_address_mask                    1 # 0 = old addressing mask, 1 = new addressing mask, 2 = new add. mask + flipped bank sel and chip sel bits
-gpuwattch_xml_file  gpuwattch_geforcegtx1080ti.xml # GPUWattch XML file
-power_simulation_enabled                    1 # Turn on power simulator (1=On, 0=Off)
-power_per_cycle_dump                    0 # Dump detailed power output each cycle
-power_trace_enabled                    0 # produce a file for the power trace (1=On, 0=Off)
-power_trace_zlevel                     6 # Compression level of the power trace output log (0=no comp, 9=highest)
-steady_power_levels_enabled                    0 # produce a file for the steady power levels (1=On, 0=Off)
-steady_state_definition                  8:4 # allowed deviation:number of samples
-gpgpu_max_cycle                        0 # terminates gpu simulation early (0 = no limit)
-gpgpu_max_insn                         0 # terminates gpu simulation early (0 = no limit)
-gpgpu_max_cta                          0 # terminates gpu simulation early (0 = no limit)
-gpgpu_runtime_stat                   500 # display runtime statistics such as dram utilization {<freq>:<flag>}
-liveness_message_freq                    1 # Minimum number of seconds between simulation liveness messages (0 = always print)
-gpgpu_flush_l1_cache                    0 # Flush L1 cache at the end of each kernel call
-gpgpu_flush_l2_cache                    0 # Flush L2 cache at the end of each kernel call
-gpgpu_deadlock_detect                    0 # Stop the simulation at deadlock (1=on (default), 0=off)
-gpgpu_ptx_instruction_classification                    0 # if enabled will classify ptx instruction types per kernel (Max 255 kernels now)
-gpgpu_ptx_sim_mode                     0 # Select between Performance (default) or Functional simulation (1)
-gpgpu_clock_domains 1481.0:2962.0:1481.0:2750.0 # Clock Domain Frequencies in MhZ {<Core Clock>:<ICNT Clock>:<L2 Clock>:<DRAM Clock>}
-gpgpu_max_concurrent_kernel                    8 # maximum kernels that can run concurrently on GPU
-gpgpu_cflog_interval                    0 # Interval between each snapshot in control flow logger
-visualizer_enabled                     0 # Turn on visualizer output (1=On, 0=Off)
-visualizer_outputfile                 NULL # Specifies the output log file for visualizer
-visualizer_zlevel                      6 # Compression level of the visualizer output log (0=no comp, 9=highest)
-trace_enabled                          0 # Turn on traces
-trace_components                    none # comma seperated list of traces to enable. Complete list found in trace_streams.tup. Default none
-trace_sampling_core                    0 # The core which is printed using CORE_DPRINTF. Default 0
-trace_sampling_memory_partition                   -1 # The memory partition which is printed using MEMPART_DPRINTF. Default -1 (i.e. all)
-gddr_size                            1GB # Size of GDDR in MB/GB.(GLOBAL_HEAP_START, GLOBAL_HEAP_START + gddr_size) would be used for unmanged memory, (GLOBAL_HEAP_START + gddr_size, GLOBAL_HEAP_START + gddr_size*2) would be used for managed memory. 
-page_table_walk_latency                  100 # Average page table walk latency (in core cycle).
-eviction_policy                        0 # Select page eviction policy
-reserve_accessed_page_percent                    0 # Percentage of accessed pages reserved from eviction in hope that they will be accessed in next iteration.
-percentage_of_free_page_buffer                    0 # Percentage of free page buffer to trigger the page eviction.
-page_size                            4KB # GDDR page size, only 4KB/2MB avaliable.
-pcie_bandwith                   16.0GB/s # PCI-e bandwith per direction, in GB/s.
-enable_nvlink                          0 # Enable nvlink 2.0, 150.0GB/s
-enable_rdma                            0 # Enable remote direct memory access
-migrate_threshold                     10 # Access counter threshold for migrating the page from cpu to gpu
-sim_prof_enable                        1 # Enable gpgpu-sim profiler
-hardware_prefetch                      2 # Select gpgpu-sim hardware prefetcher
-hwprefetch_oversub                     0 # Select gpgpu-sim hardware prefetcher under over-subscription
-page_fault_latency                 66645 # Average fault latency (in core cycle).
-enable_accurate_simulation                    0 # Enable page fault functional simulation.
-enable_ptx_file_line_stats                    1 # Turn on PTX source line statistic profiling. (1 = On)
-ptx_line_stats_filename gpgpu_inst_stats.txt # Output file for PTX source line statistics.
-gpgpu_kernel_launch_latency               222150 # Kernel launch latency in cycles. Default: 0
-gpgpu_cdp_enabled                      0 # Turn on CDP
-save_embedded_ptx                      0 # saves ptx files embedded in binary as <n>.ptx
-keep                                   0 # keep intermediate files created by GPGPU-Sim when interfacing with external programs
-gpgpu_ptx_save_converted_ptxplus                    0 # Saved converted ptxplus to a file
-ptx_opcode_latency_int         4,13,4,5,145 # Opcode latencies for integers <ADD,MAX,MUL,MAD,DIV>Default 1,1,19,25,145
-ptx_opcode_latency_fp          4,13,4,5,39 # Opcode latencies for single precision floating points <ADD,MAX,MUL,MAD,DIV>Default 1,1,1,1,30
-ptx_opcode_latency_dp         8,19,8,8,330 # Opcode latencies for double precision floating points <ADD,MAX,MUL,MAD,DIV>Default 8,8,8,8,335
-ptx_opcode_initiation_int            1,2,2,2,8 # Opcode initiation intervals for integers <ADD,MAX,MUL,MAD,DIV>Default 1,1,4,4,32
-ptx_opcode_initiation_fp            1,2,1,1,4 # Opcode initiation intervals for single precision floating points <ADD,MAX,MUL,MAD,DIV>Default 1,1,1,1,5
-ptx_opcode_initiation_dp          1,2,1,1,130 # Opcode initiation intervals for double precision floating points <ADD,MAX,MUL,MAD,DIV>Default 8,8,8,8,130
-cdp_latency         7200,8000,100,12000,1600 # CDP API latency <cudaStreamCreateWithFlags, cudaGetParameterBufferV2_init_perWarp, cudaGetParameterBufferV2_perKernel, cudaLaunchDeviceV2_init_perWarp, cudaLaunchDevicV2_perKernel>Default 7200,8000,100,12000,1600
DRAM Timing Options:
nbk                                    16 # number of banks
CCD                                     2 # column to column delay
RRD                                     6 # minimal delay between activation of rows in different banks
RCD                                    12 # row to column delay
RAS                                    28 # time needed to activate row
RP                                     12 # time needed to precharge (deactivate) row
RC                                     40 # row cycle time
CDLR                                    5 # switching from write to read (changes tWTR)
WR                                     12 # last data-in to row precharge
CL                                     12 # CAS latency
WL                                      4 # Write latency
nbkgrp                                  1 # number of bank groups
CCDL                                    0 # column to column delay between accesses to different bank groups
RTPL                                    0 # read to precharge delay between accesses to different bank groups
Total number of memory sub partition = 22
addr_dec_mask[CHIP]  = 0000000000000000 	high:64 low:0
addr_dec_mask[BK]    = 0000000000007080 	high:15 low:7
addr_dec_mask[ROW]   = 000000000fff8000 	high:28 low:15
addr_dec_mask[COL]   = 0000000000000f7f 	high:12 low:0
addr_dec_mask[BURST] = 000000000000001f 	high:5 low:0
sub_partition_id_mask = 0000000000000080
GPGPU-Sim uArch: clock freqs: 1481000000.000000:2962000000.000000:1481000000.000000:2750000000.000000
GPGPU-Sim uArch: clock periods: 0.00000000067521944632:0.00000000033760972316:0.00000000067521944632:0.00000000036363636364
*** Initializing Memory Statistics ***
GPGPU-Sim uArch: interconnect node map (shaderID+MemID to icntID)
GPGPU-Sim uArch: Memory nodes ID start from index: 28
GPGPU-Sim uArch:    0   1   2   3   4   5   6
GPGPU-Sim uArch:    7   8   9  10  11  12  13
GPGPU-Sim uArch:   14  15  16  17  18  19  20
GPGPU-Sim uArch:   21  22  23  24  25  26  27
GPGPU-Sim uArch:   28  29  30  31  32  33  34
GPGPU-Sim uArch:   35  36  37  38  39  40  41
GPGPU-Sim uArch:   42  43  44  45  46  47  48
GPGPU-Sim uArch:   49
GPGPU-Sim uArch: interconnect node reverse map (icntID to shaderID+MemID)
GPGPU-Sim uArch: Memory nodes start from ID: 28
GPGPU-Sim uArch:    0   1   2   3   4   5   6
GPGPU-Sim uArch:    7   8   9  10  11  12  13
GPGPU-Sim uArch:   14  15  16  17  18  19  20
GPGPU-Sim uArch:   21  22  23  24  25  26  27
GPGPU-Sim uArch:   28  29  30  31  32  33  34
GPGPU-Sim uArch:   35  36  37  38  39  40  41
GPGPU-Sim uArch:   42  43  44  45  46  47  48
GPGPU-Sim uArch:   49
02d27ce0caecdd8a7dcb0734436fb47b  /home/gpuser/Desktop/gpgpu-sim_UVMSmart/benchmarks/Managed/stencil/main
GPGPU-Sim uArch: performance model initialization complete.
GPGPU-Sim PTX: __cudaRegisterFatBinary, fat_cubin_handle = 1, filename=default
self exe links to: /home/gpuser/Desktop/gpgpu-sim_UVMSmart/benchmarks/Managed/stencil/main
Running md5sum using "md5sum /home/gpuser/Desktop/gpgpu-sim_UVMSmart/benchmarks/Managed/stencil/main "
Parsing file _cuobjdump_complete_output_jvolXi
######### cuobjdump parser ########
## Adding new section ELF
Adding arch: sm_20
Adding identifier: default
## Adding new section ELF
Adding arch: sm_20
Adding identifier: default
## Adding new section PTX
Adding ptx filename: _cuobjdump_1.ptx
Adding arch: sm_20
Adding identifier: default
## Adding new section ELF
Adding arch: sm_20
Adding identifier: default
## Adding new section PTX
Adding ptx filename: _cuobjdump_2.ptx
Adding arch: sm_20
Adding identifier: default
Done parsing!!!
GPGPU-Sim PTX: __cudaRegisterFatBinary, fat_cubin_handle = 2, filename=default
GPGPU-Sim PTX: __cudaRegisterFunction _Z24block2D_hybrid_coarsen_xffPfS_iii : hostFun 0x0x401496, fat_cubin_handle = 2
GPGPU-Sim PTX: allocating shared region for "sh_A0" from 0x0 to 0x0 (shared memory space)
GPGPU-Sim PTX: instruction assembly for function '_Z24block2D_hybrid_coarsen_xffPfS_iii'...   done.
GPGPU-Sim PTX: finding reconvergence points for '_Z24block2D_hybrid_coarsen_xffPfS_iii'...
GPGPU-Sim PTX: Finding dominators for '_Z24block2D_hybrid_coarsen_xffPfS_iii'...
GPGPU-Sim PTX: Finding immediate dominators for '_Z24block2D_hybrid_coarsen_xffPfS_iii'...
GPGPU-Sim PTX: Finding postdominators for '_Z24block2D_hybrid_coarsen_xffPfS_iii'...
GPGPU-Sim PTX: Finding immediate postdominators for '_Z24block2D_hybrid_coarsen_xffPfS_iii'...
GPGPU-Sim PTX: pre-decoding instructions for '_Z24block2D_hybrid_coarsen_xffPfS_iii'...
GPGPU-Sim PTX: reconvergence points for _Z24block2D_hybrid_coarsen_xffPfS_iii...
GPGPU-Sim PTX:  1 (potential) branch divergence @  PC=0x170 (_2.ptx:82) @!%p13 bra BB0_2;
GPGPU-Sim PTX:    immediate post dominator      @  PC=0x200 (_2.ptx:104) mov.f32 %f64, %f69;
GPGPU-Sim PTX:  2 (potential) branch divergence @  PC=0x178 (_2.ptx:83) bra.uni BB0_1;
GPGPU-Sim PTX:    immediate post dominator      @  PC=0x180 (_2.ptx:86) mad.lo.s32 %r33, %r3, %r6, %r1;
GPGPU-Sim PTX:  3 (potential) branch divergence @  PC=0x228 (_2.ptx:109) @!%p16 bra BB0_4;
GPGPU-Sim PTX:    immediate post dominator      @  PC=0x2b0 (_2.ptx:130) mov.f32 %f67, %f68;
GPGPU-Sim PTX:  4 (potential) branch divergence @  PC=0x230 (_2.ptx:110) bra.uni BB0_3;
GPGPU-Sim PTX:    immediate post dominator      @  PC=0x238 (_2.ptx:113) mad.lo.s32 %r58, %r3, %r6, %r2;
GPGPU-Sim PTX:  5 (potential) branch divergence @  PC=0x2d0 (_2.ptx:134) @%p17 bra BB0_33;
GPGPU-Sim PTX:    immediate post dominator      @  PC=0x868 (_2.ptx:370) ret;
GPGPU-Sim PTX:  6 (potential) branch divergence @  PC=0x300 (_2.ptx:143) @!%p13 bra BB0_8;
GPGPU-Sim PTX:    immediate post dominator      @  PC=0x348 (_2.ptx:156) @!%p5 bra BB0_19;
GPGPU-Sim PTX:  7 (potential) branch divergence @  PC=0x308 (_2.ptx:144) bra.uni BB0_7;
GPGPU-Sim PTX:    immediate post dominator      @  PC=0x310 (_2.ptx:147) add.s32 %r75, %r273, 1;
GPGPU-Sim PTX:  8 (potential) branch divergence @  PC=0x348 (_2.ptx:156) @!%p5 bra BB0_19;
GPGPU-Sim PTX:    immediate post dominator      @  PC=0x590 (_2.ptx:251) @!%p16 bra BB0_21;
GPGPU-Sim PTX:  9 (potential) branch divergence @  PC=0x350 (_2.ptx:157) bra.uni BB0_9;
GPGPU-Sim PTX:    immediate post dominator      @  PC=0x358 (_2.ptx:160) add.s32 %r89, %r13, -1;
GPGPU-Sim PTX: 10 (potential) branch divergence @  PC=0x368 (_2.ptx:162) @%p21 bra BB0_11;
GPGPU-Sim PTX:    immediate post dominator      @  PC=0x3e8 (_2.ptx:184) setp.eq.s32%p22, %r15, 0;
GPGPU-Sim PTX: 11 (potential) branch divergence @  PC=0x370 (_2.ptx:163) bra.uni BB0_10;
GPGPU-Sim PTX:    immediate post dominator      @  PC=0x3b8 (_2.ptx:176) shl.b32 %r92, %r11, 1;
GPGPU-Sim PTX: 12 (potential) branch divergence @  PC=0x3b0 (_2.ptx:173) bra.uni BB0_12;
GPGPU-Sim PTX:    immediate post dominator      @  PC=0x3e8 (_2.ptx:184) setp.eq.s32%p22, %r15, 0;
GPGPU-Sim PTX: 13 (potential) branch divergence @  PC=0x3f0 (_2.ptx:185) @%p22 bra BB0_14;
GPGPU-Sim PTX:    immediate post dominator      @  PC=0x470 (_2.ptx:207) setp.eq.s32%p23, %r12, 0;
GPGPU-Sim PTX: 14 (potential) branch divergence @  PC=0x3f8 (_2.ptx:186) bra.uni BB0_13;
GPGPU-Sim PTX:    immediate post dominator      @  PC=0x440 (_2.ptx:199) shl.b32 %r111, %r11, 1;
GPGPU-Sim PTX: 15 (potential) branch divergence @  PC=0x438 (_2.ptx:196) bra.uni BB0_15;
GPGPU-Sim PTX:    immediate post dominator      @  PC=0x470 (_2.ptx:207) setp.eq.s32%p23, %r12, 0;
GPGPU-Sim PTX: 16 (potential) branch divergence @  PC=0x478 (_2.ptx:208) @%p23 bra BB0_17;
GPGPU-Sim PTX:    immediate post dominator      @  PC=0x4f0 (_2.ptx:229) mad.lo.s32 %r149, %r273, %r7, %r3;
GPGPU-Sim PTX: 17 (potential) branch divergence @  PC=0x480 (_2.ptx:209) bra.uni BB0_16;
GPGPU-Sim PTX:    immediate post dominator      @  PC=0x4c8 (_2.ptx:222) shl.b32 %r129, %r11, 1;
GPGPU-Sim PTX: 18 (potential) branch divergence @  PC=0x4c0 (_2.ptx:219) bra.uni BB0_18;
GPGPU-Sim PTX:    immediate post dominator      @  PC=0x4f0 (_2.ptx:229) mad.lo.s32 %r149, %r273, %r7, %r3;
GPGPU-Sim PTX: 19 (potential) branch divergence @  PC=0x590 (_2.ptx:251) @!%p16 bra BB0_21;
GPGPU-Sim PTX:    immediate post dominator      @  PC=0x5d8 (_2.ptx:264) @!%p4 bra BB0_32;
GPGPU-Sim PTX: 20 (potential) branch divergence @  PC=0x598 (_2.ptx:252) bra.uni BB0_20;
GPGPU-Sim PTX:    immediate post dominator      @  PC=0x5a0 (_2.ptx:255) add.s32 %r168, %r273, 1;
GPGPU-Sim PTX: 21 (potential) branch divergence @  PC=0x5d8 (_2.ptx:264) @!%p4 bra BB0_32;
GPGPU-Sim PTX:    immediate post dominator      @  PC=0x820 (_2.ptx:359) bar.sync 0;
GPGPU-Sim PTX: 22 (potential) branch divergence @  PC=0x5e0 (_2.ptx:265) bra.uni BB0_22;
GPGPU-Sim PTX:    immediate post dominator      @  PC=0x5e8 (_2.ptx:268) add.s32 %r183, %r13, -1;
GPGPU-Sim PTX: 23 (potential) branch divergence @  PC=0x5f8 (_2.ptx:270) @%p27 bra BB0_24;
GPGPU-Sim PTX:    immediate post dominator      @  PC=0x678 (_2.ptx:292) setp.eq.s32%p28, %r15, 0;
GPGPU-Sim PTX: 24 (potential) branch divergence @  PC=0x600 (_2.ptx:271) bra.uni BB0_23;
GPGPU-Sim PTX:    immediate post dominator      @  PC=0x648 (_2.ptx:284) shl.b32 %r186, %r11, 1;
GPGPU-Sim PTX: 25 (potential) branch divergence @  PC=0x640 (_2.ptx:281) bra.uni BB0_25;
GPGPU-Sim PTX:    immediate post dominator      @  PC=0x678 (_2.ptx:292) setp.eq.s32%p28, %r15, 0;
GPGPU-Sim PTX: 26 (potential) branch divergence @  PC=0x680 (_2.ptx:293) @%p28 bra BB0_27;
GPGPU-Sim PTX:    immediate post dominator      @  PC=0x700 (_2.ptx:315) shl.b32 %r228, %r11, 1;
GPGPU-Sim PTX: 27 (potential) branch divergence @  PC=0x688 (_2.ptx:294) bra.uni BB0_26;
GPGPU-Sim PTX:    immediate post dominator      @  PC=0x6d0 (_2.ptx:307) shl.b32 %r207, %r11, 1;
GPGPU-Sim PTX: 28 (potential) branch divergence @  PC=0x6c8 (_2.ptx:304) bra.uni BB0_28;
GPGPU-Sim PTX:    immediate post dominator      @  PC=0x700 (_2.ptx:315) shl.b32 %r228, %r11, 1;
GPGPU-Sim PTX: 29 (potential) branch divergence @  PC=0x718 (_2.ptx:318) @%p29 bra BB0_30;
GPGPU-Sim PTX:    immediate post dominator      @  PC=0x788 (_2.ptx:338) mad.lo.s32 %r253, %r273, %r7, %r3;
GPGPU-Sim PTX: 30 (potential) branch divergence @  PC=0x720 (_2.ptx:319) bra.uni BB0_29;
GPGPU-Sim PTX:    immediate post dominator      @  PC=0x768 (_2.ptx:332) mad.lo.s32 %r235, %r228, %r15, %r19;
GPGPU-Sim PTX: 31 (potential) branch divergence @  PC=0x760 (_2.ptx:329) bra.uni BB0_31;
GPGPU-Sim PTX:    immediate post dominator      @  PC=0x788 (_2.ptx:338) mad.lo.s32 %r253, %r273, %r7, %r3;
GPGPU-Sim PTX: 32 (potential) branch divergence @  PC=0x860 (_2.ptx:367) @%p30 bra BB0_6;
GPGPU-Sim PTX:    immediate post dominator      @  PC=0x868 (_2.ptx:370) ret;
GPGPU-Sim PTX: ... end of reconvergence points for _Z24block2D_hybrid_coarsen_xffPfS_iii
GPGPU-Sim PTX: ... done pre-decoding instructions for '_Z24block2D_hybrid_coarsen_xffPfS_iii'.
GPGPU-Sim PTX: finished parsing EMBEDDED .ptx file _2.ptx
Adding _cuobjdump_1.ptx with cubin handle 2
GPGPU-Sim PTX: extracting embedded .ptx to temporary file "_ptx_tMoFt5"
Running: cat _ptx_tMoFt5 | sed 's/.version 1.5/.version 1.4/' | sed 's/, texmode_independent//' | sed 's/\(\.extern \.const\[1\] .b8 \w\+\)\[\]/\1\[1\]/' | sed 's/const\[.\]/const\[0\]/g' > _ptx2_yFv2ZR
GPGPU-Sim PTX: generating ptxinfo using "$CUDA_INSTALL_PATH/bin/ptxas --gpu-name=sm_20 -v _ptx2_yFv2ZR --output-file  /dev/null 2> _ptx_tMoFt5info"
GPGPU-Sim PTX: Kernel '_Z24block2D_hybrid_coarsen_xffPfS_iii' : regs=20, lmem=0, smem=0, cmem=68
GPGPU-Sim PTX: removing ptxinfo using "rm -f _ptx_tMoFt5 _ptx2_yFv2ZR _ptx_tMoFt5info"
GPGPU-Sim PTX: loading globals with explicit initializers... 
GPGPU-Sim PTX: finished loading globals (0 bytes total).
GPGPU-Sim PTX: loading constants with explicit initializers...  done.
CUDA accelerated 7 points stencil codes****
Original version by Li-Wen Chang <lchang20@illinois.edu> and I-Jui Sung<sung10@illinois.edu>
This version maintained by Chris Rodrigues  ***********

GPGPU-Sim PTX: cudaLaunch for 0x0x401496 (mode=performance simulation) on stream 0
GPGPU-Sim PTX: pushing kernel '_Z24block2D_hybrid_coarsen_xffPfS_iii' to stream 0, gridDim= (2,32,1) blockDim = (32,4,1) 
GPGPU-Sim uArch: Shader 1 bind to kernel 1 '_Z24block2D_hybrid_coarsen_xffPfS_iii'
GPGPU-Sim uArch: CTA/core = 16, limited by: threads
GPGPU-Sim uArch: Shader 2 bind to kernel 1 '_Z24block2D_hybrid_coarsen_xffPfS_iii'
GPGPU-Sim uArch: Shader 3 bind to kernel 1 '_Z24block2D_hybrid_coarsen_xffPfS_iii'
GPGPU-Sim uArch: Shader 4 bind to kernel 1 '_Z24block2D_hybrid_coarsen_xffPfS_iii'
GPGPU-Sim uArch: Shader 5 bind to kernel 1 '_Z24block2D_hybrid_coarsen_xffPfS_iii'
GPGPU-Sim uArch: Shader 6 bind to kernel 1 '_Z24block2D_hybrid_coarsen_xffPfS_iii'
GPGPU-Sim uArch: Shader 7 bind to kernel 1 '_Z24block2D_hybrid_coarsen_xffPfS_iii'
GPGPU-Sim uArch: Shader 8 bind to kernel 1 '_Z24block2D_hybrid_coarsen_xffPfS_iii'
GPGPU-Sim uArch: Shader 9 bind to kernel 1 '_Z24block2D_hybrid_coarsen_xffPfS_iii'
GPGPU-Sim uArch: Shader 10 bind to kernel 1 '_Z24block2D_hybrid_coarsen_xffPfS_iii'
GPGPU-Sim uArch: Shader 11 bind to kernel 1 '_Z24block2D_hybrid_coarsen_xffPfS_iii'
GPGPU-Sim uArch: Shader 12 bind to kernel 1 '_Z24block2D_hybrid_coarsen_xffPfS_iii'
GPGPU-Sim uArch: Shader 13 bind to kernel 1 '_Z24block2D_hybrid_coarsen_xffPfS_iii'
GPGPU-Sim uArch: Shader 14 bind to kernel 1 '_Z24block2D_hybrid_coarsen_xffPfS_iii'
GPGPU-Sim uArch: Shader 15 bind to kernel 1 '_Z24block2D_hybrid_coarsen_xffPfS_iii'
GPGPU-Sim uArch: Shader 16 bind to kernel 1 '_Z24block2D_hybrid_coarsen_xffPfS_iii'
GPGPU-Sim uArch: Shader 17 bind to kernel 1 '_Z24block2D_hybrid_coarsen_xffPfS_iii'
GPGPU-Sim uArch: Shader 18 bind to kernel 1 '_Z24block2D_hybrid_coarsen_xffPfS_iii'
GPGPU-Sim uArch: Shader 19 bind to kernel 1 '_Z24block2D_hybrid_coarsen_xffPfS_iii'
GPGPU-Sim uArch: Shader 20 bind to kernel 1 '_Z24block2D_hybrid_coarsen_xffPfS_iii'
GPGPU-Sim uArch: Shader 21 bind to kernel 1 '_Z24block2D_hybrid_coarsen_xffPfS_iii'
GPGPU-Sim uArch: Shader 22 bind to kernel 1 '_Z24block2D_hybrid_coarsen_xffPfS_iii'
GPGPU-Sim uArch: Shader 23 bind to kernel 1 '_Z24block2D_hybrid_coarsen_xffPfS_iii'
GPGPU-Sim uArch: Shader 24 bind to kernel 1 '_Z24block2D_hybrid_coarsen_xffPfS_iii'
GPGPU-Sim uArch: Shader 25 bind to kernel 1 '_Z24block2D_hybrid_coarsen_xffPfS_iii'
GPGPU-Sim uArch: Shader 26 bind to kernel 1 '_Z24block2D_hybrid_coarsen_xffPfS_iii'
GPGPU-Sim uArch: Shader 27 bind to kernel 1 '_Z24block2D_hybrid_coarsen_xffPfS_iii'
GPGPU-Sim uArch: Shader 0 bind to kernel 1 '_Z24block2D_hybrid_coarsen_xffPfS_iii'
Destroy streams for kernel 1: size 0
kernel_name = _Z24block2D_hybrid_coarsen_xffPfS_iii 
kernel_launch_uid = 1 
gpu_sim_cycle = 673176
gpu_sim_insn = 28848876
gpu_ipc =      42.8549
gpu_tot_sim_cycle = 895326
gpu_tot_sim_insn = 28848876
gpu_tot_ipc =      32.2216
gpu_tot_issued_cta = 64
max_total_param_size = 0
gpu_stall_dramfull = 50
gpu_stall_icnt2sh    = 9997
partiton_reqs_in_parallel = 14809822
partiton_reqs_in_parallel_total    = 0
partiton_level_parallism =      21.9999
partiton_level_parallism_total  =      16.5413
partiton_reqs_in_parallel_util = 14809822
partiton_reqs_in_parallel_util_total    = 0
gpu_sim_cycle_parition_util = 673176
gpu_tot_sim_cycle_parition_util    = 0
partiton_level_parallism_util =      21.9999
partiton_level_parallism_util_total  =      21.9999
partiton_replys_in_parallel = 47008
partiton_replys_in_parallel_total    = 0
L2_BW  =       6.6188 GB/Sec
L2_BW_total  =       4.9765 GB/Sec
gpu_total_sim_rate=21971

========= Core cache stats =========
L1I_cache:
	L1I_total_cache_accesses = 579228
	L1I_total_cache_misses = 3182
	L1I_total_cache_miss_rate = 0.0055
	L1I_total_cache_pending_hits = 0
	L1I_total_cache_reservation_fails = 0
L1D_cache:
	L1D_cache_core[0]: Access = 0, Miss = 0, Miss_rate = -nan, Pending_hits = 0, Reservation_fails = 0
	L1D_cache_core[1]: Access = 0, Miss = 0, Miss_rate = -nan, Pending_hits = 0, Reservation_fails = 0
	L1D_cache_core[2]: Access = 0, Miss = 0, Miss_rate = -nan, Pending_hits = 0, Reservation_fails = 0
	L1D_cache_core[3]: Access = 0, Miss = 0, Miss_rate = -nan, Pending_hits = 0, Reservation_fails = 0
	L1D_cache_core[4]: Access = 0, Miss = 0, Miss_rate = -nan, Pending_hits = 0, Reservation_fails = 0
	L1D_cache_core[5]: Access = 0, Miss = 0, Miss_rate = -nan, Pending_hits = 0, Reservation_fails = 0
	L1D_cache_core[6]: Access = 0, Miss = 0, Miss_rate = -nan, Pending_hits = 0, Reservation_fails = 0
	L1D_cache_core[7]: Access = 0, Miss = 0, Miss_rate = -nan, Pending_hits = 0, Reservation_fails = 0
	L1D_cache_core[8]: Access = 0, Miss = 0, Miss_rate = -nan, Pending_hits = 0, Reservation_fails = 0
	L1D_cache_core[9]: Access = 0, Miss = 0, Miss_rate = -nan, Pending_hits = 0, Reservation_fails = 0
	L1D_cache_core[10]: Access = 0, Miss = 0, Miss_rate = -nan, Pending_hits = 0, Reservation_fails = 0
	L1D_cache_core[11]: Access = 0, Miss = 0, Miss_rate = -nan, Pending_hits = 0, Reservation_fails = 0
	L1D_cache_core[12]: Access = 0, Miss = 0, Miss_rate = -nan, Pending_hits = 0, Reservation_fails = 0
	L1D_cache_core[13]: Access = 0, Miss = 0, Miss_rate = -nan, Pending_hits = 0, Reservation_fails = 0
	L1D_cache_core[14]: Access = 0, Miss = 0, Miss_rate = -nan, Pending_hits = 0, Reservation_fails = 0
	L1D_cache_core[15]: Access = 0, Miss = 0, Miss_rate = -nan, Pending_hits = 0, Reservation_fails = 0
	L1D_cache_core[16]: Access = 0, Miss = 0, Miss_rate = -nan, Pending_hits = 0, Reservation_fails = 0
	L1D_cache_core[17]: Access = 0, Miss = 0, Miss_rate = -nan, Pending_hits = 0, Reservation_fails = 0
	L1D_cache_core[18]: Access = 0, Miss = 0, Miss_rate = -nan, Pending_hits = 0, Reservation_fails = 0
	L1D_cache_core[19]: Access = 0, Miss = 0, Miss_rate = -nan, Pending_hits = 0, Reservation_fails = 0
	L1D_cache_core[20]: Access = 0, Miss = 0, Miss_rate = -nan, Pending_hits = 0, Reservation_fails = 0
	L1D_cache_core[21]: Access = 0, Miss = 0, Miss_rate = -nan, Pending_hits = 0, Reservation_fails = 0
	L1D_cache_core[22]: Access = 0, Miss = 0, Miss_rate = -nan, Pending_hits = 0, Reservation_fails = 0
	L1D_cache_core[23]: Access = 0, Miss = 0, Miss_rate = -nan, Pending_hits = 0, Reservation_fails = 0
	L1D_cache_core[24]: Access = 0, Miss = 0, Miss_rate = -nan, Pending_hits = 0, Reservation_fails = 0
	L1D_cache_core[25]: Access = 0, Miss = 0, Miss_rate = -nan, Pending_hits = 0, Reservation_fails = 0
	L1D_cache_core[26]: Access = 0, Miss = 0, Miss_rate = -nan, Pending_hits = 0, Reservation_fails = 0
	L1D_cache_core[27]: Access = 0, Miss = 0, Miss_rate = -nan, Pending_hits = 0, Reservation_fails = 0
	L1D_total_cache_accesses = 0
	L1D_total_cache_misses = 0
	L1D_total_cache_pending_hits = 0
	L1D_total_cache_reservation_fails = 0
	L1D_cache_data_port_util = 0.000
	L1D_cache_fill_port_util = 0.000
L1C_cache:
	L1C_total_cache_accesses = 1792
	L1C_total_cache_misses = 1632
	L1C_total_cache_miss_rate = 0.9107
	L1C_total_cache_pending_hits = 0
	L1C_total_cache_reservation_fails = 1444
L1T_cache:
	L1T_total_cache_accesses = 0
	L1T_total_cache_misses = 0
	L1T_total_cache_pending_hits = 0
	L1T_total_cache_reservation_fails = 0

Total_core_cache_stats:
	Total_core_cache_stats_breakdown[GLOBAL_ACC_R][HIT] = 0
	Total_core_cache_stats_breakdown[GLOBAL_ACC_R][HIT_RESERVED] = 0
	Total_core_cache_stats_breakdown[GLOBAL_ACC_R][MISS] = 0
	Total_core_cache_stats_breakdown[GLOBAL_ACC_R][RESERVATION_FAIL] = 0
	Total_core_cache_stats_breakdown[LOCAL_ACC_R][HIT] = 0
	Total_core_cache_stats_breakdown[LOCAL_ACC_R][HIT_RESERVED] = 0
	Total_core_cache_stats_breakdown[LOCAL_ACC_R][MISS] = 0
	Total_core_cache_stats_breakdown[LOCAL_ACC_R][RESERVATION_FAIL] = 0
	Total_core_cache_stats_breakdown[CONST_ACC_R][HIT] = 160
	Total_core_cache_stats_breakdown[CONST_ACC_R][HIT_RESERVED] = 0
	Total_core_cache_stats_breakdown[CONST_ACC_R][MISS] = 1632
	Total_core_cache_stats_breakdown[CONST_ACC_R][RESERVATION_FAIL] = 1444
	Total_core_cache_stats_breakdown[TEXTURE_ACC_R][HIT] = 0
	Total_core_cache_stats_breakdown[TEXTURE_ACC_R][HIT_RESERVED] = 0
	Total_core_cache_stats_breakdown[TEXTURE_ACC_R][MISS] = 0
	Total_core_cache_stats_breakdown[TEXTURE_ACC_R][RESERVATION_FAIL] = 0
	Total_core_cache_stats_breakdown[GLOBAL_ACC_W][HIT] = 0
	Total_core_cache_stats_breakdown[GLOBAL_ACC_W][HIT_RESERVED] = 0
	Total_core_cache_stats_breakdown[GLOBAL_ACC_W][MISS] = 0
	Total_core_cache_stats_breakdown[GLOBAL_ACC_W][RESERVATION_FAIL] = 0
	Total_core_cache_stats_breakdown[LOCAL_ACC_W][HIT] = 0
	Total_core_cache_stats_breakdown[LOCAL_ACC_W][HIT_RESERVED] = 0
	Total_core_cache_stats_breakdown[LOCAL_ACC_W][MISS] = 0
	Total_core_cache_stats_breakdown[LOCAL_ACC_W][RESERVATION_FAIL] = 0
	Total_core_cache_stats_breakdown[L1_WRBK_ACC][HIT] = 0
	Total_core_cache_stats_breakdown[L1_WRBK_ACC][HIT_RESERVED] = 0
	Total_core_cache_stats_breakdown[L1_WRBK_ACC][MISS] = 0
	Total_core_cache_stats_breakdown[L1_WRBK_ACC][RESERVATION_FAIL] = 0
	Total_core_cache_stats_breakdown[L2_WRBK_ACC][HIT] = 0
	Total_core_cache_stats_breakdown[L2_WRBK_ACC][HIT_RESERVED] = 0
	Total_core_cache_stats_breakdown[L2_WRBK_ACC][MISS] = 0
	Total_core_cache_stats_breakdown[L2_WRBK_ACC][RESERVATION_FAIL] = 0
	Total_core_cache_stats_breakdown[INST_ACC_R][HIT] = 576046
	Total_core_cache_stats_breakdown[INST_ACC_R][HIT_RESERVED] = 0
	Total_core_cache_stats_breakdown[INST_ACC_R][MISS] = 3182
	Total_core_cache_stats_breakdown[INST_ACC_R][RESERVATION_FAIL] = 0
	Total_core_cache_stats_breakdown[L1_WR_ALLOC_R][HIT] = 0
	Total_core_cache_stats_breakdown[L1_WR_ALLOC_R][HIT_RESERVED] = 0
	Total_core_cache_stats_breakdown[L1_WR_ALLOC_R][MISS] = 0
	Total_core_cache_stats_breakdown[L1_WR_ALLOC_R][RESERVATION_FAIL] = 0
	Total_core_cache_stats_breakdown[L2_WR_ALLOC_R][HIT] = 0
	Total_core_cache_stats_breakdown[L2_WR_ALLOC_R][HIT_RESERVED] = 0
	Total_core_cache_stats_breakdown[L2_WR_ALLOC_R][MISS] = 0
	Total_core_cache_stats_breakdown[L2_WR_ALLOC_R][RESERVATION_FAIL] = 0
	Total_core_cache_stats_breakdown[CONST_ACC_R][TOTAL_ACCESS] = 1792
	Total_core_cache_stats_breakdown[INST_ACC_R][TOTAL_ACCESS] = 579228
Shader 0 warp_id issue ditsribution:
warp_id:
0, 1, 2, 3, 4, 5, 6, 7, 
distro:
4828, 4641, 4648, 4826, 4827, 4639, 4648, 4821, 
gpgpu_n_tot_thrd_icount = 33319424
gpgpu_n_tot_w_icount = 1041232
gpgpu_n_stall_shd_mem = 54853
gpgpu_n_mem_read_local = 0
gpgpu_n_mem_write_local = 0
gpgpu_n_mem_read_global = 31384
gpgpu_n_mem_write_global = 15120
gpgpu_n_mem_texture = 0
gpgpu_n_mem_const = 28
gpgpu_n_load_insn  = 766208
gpgpu_n_store_insn = 476280
gpgpu_n_shmem_insn = 3155288
gpgpu_n_tex_insn = 0
gpgpu_n_const_mem_insn = 0
gpgpu_n_param_mem_insn = 57344
gpgpu_n_shmem_bkconflict = 0
gpgpu_n_cache_bkconflict = 0
gpgpu_n_intrawarp_mshr_merge = 0
gpgpu_n_cmem_portconflict = 1444
gpgpu_stall_shd_mem[c_mem][bk_conf] = 1444
gpgpu_stall_shd_mem[c_mem][mshr_rc] = 0
gpgpu_stall_shd_mem[c_mem][icnt_rc] = 0
gpgpu_stall_shd_mem[c_mem][data_port_stall] = 0
gpgpu_stall_shd_mem[t_mem][mshr_rc] = 0
gpgpu_stall_shd_mem[t_mem][icnt_rc] = 0
gpgpu_stall_shd_mem[t_mem][data_port_stall] = 0
gpgpu_stall_shd_mem[s_mem][bk_conf] = 0
gpgpu_stall_shd_mem[gl_mem][bk_conf] = 0
gpgpu_stall_shd_mem[gl_mem][coal_stall] = 0
gpgpu_stall_shd_mem[gl_mem][data_port_stall] = 0
gpgpu_stall_shd_mem[g_mem_ld][mshr_rc] = 0
gpgpu_stall_shd_mem[g_mem_ld][icnt_rc] = 53409
gpgpu_stall_shd_mem[g_mem_ld][wb_icnt_rc] = 0
gpgpu_stall_shd_mem[g_mem_ld][wb_rsrv_fail] = 0
gpgpu_stall_shd_mem[g_mem_st][mshr_rc] = 0
gpgpu_stall_shd_mem[g_mem_st][icnt_rc] = 0
gpgpu_stall_shd_mem[g_mem_st][wb_icnt_rc] = 0
gpgpu_stall_shd_mem[g_mem_st][wb_rsrv_fail] = 0
gpgpu_stall_shd_mem[l_mem_ld][mshr_rc] = 0
gpgpu_stall_shd_mem[l_mem_ld][icnt_rc] = 0
gpgpu_stall_shd_mem[l_mem_ld][wb_icnt_rc] = 0
gpgpu_stall_shd_mem[l_mem_ld][wb_rsrv_fail] = 0
gpgpu_stall_shd_mem[l_mem_st][mshr_rc] = 0
gpgpu_stall_shd_mem[l_mem_st][icnt_rc] = 0
gpgpu_stall_shd_mem[l_mem_ld][wb_icnt_rc] = 0
gpgpu_stall_shd_mem[l_mem_ld][wb_rsrv_fail] = 0
gpu_reg_bank_conflict_stalls = 0
Warp Occupancy Distribution:
Stall:29270	W0_Idle:680487	W0_Scoreboard:36099605	W1:60480	W2:0	W3:0	W4:0	W5:0	W6:0	W7:0	W8:0	W9:0	W10:0	W11:0	W12:0	W13:0	W14:0	W15:0	W16:0	W17:0	W18:0	W19:0	W20:0	W21:0	W22:0	W23:0	W24:0	W25:0	W26:0	W27:0	W28:0	W29:0	W30:0	W31:408180	W32:572572
traffic_breakdown_coretomem[CONST_ACC_R] = 224 {8:28,}
traffic_breakdown_coretomem[GLOBAL_ACC_R] = 251072 {8:31384,}
traffic_breakdown_coretomem[GLOBAL_ACC_W] = 2056320 {136:15120,}
traffic_breakdown_coretomem[INST_ACC_R] = 3808 {8:476,}
traffic_breakdown_memtocore[CONST_ACC_R] = 2016 {72:28,}
traffic_breakdown_memtocore[GLOBAL_ACC_R] = 3542464 {40:7560,136:23824,}
traffic_breakdown_memtocore[GLOBAL_ACC_W] = 120960 {8:15120,}
traffic_breakdown_memtocore[INST_ACC_R] = 64736 {136:476,}
maxmrqlatency = 470 
maxdqlatency = 0 
maxmflatency = 21000 
averagemflatency = 7112 
max_icnt2mem_latency = 20733 
max_icnt2sh_latency = 895325 
mrq_lat_table:6917 	2338 	1955 	3319 	3859 	5827 	4669 	7566 	10192 	0 	0 	0 	0 	0 	0 	0 	0 	0 	0 	0 	0 	0 	0 	0 	0 	0 	0 	0 	0 	0 	0 	0 	
dq_lat_table:0 	0 	0 	0 	0 	0 	0 	0 	0 	0 	0 	0 	0 	0 	0 	0 	0 	0 	0 	0 	0 	0 	0 	0 	0 	0 	0 	0 	0 	0 	0 	0 	
mf_lat_table:0 	0 	0 	0 	0 	0 	0 	19644 	3396 	0 	0 	2 	188 	15618 	7684 	0 	0 	0 	0 	0 	0 	0 	0 	0 	0 	0 	0 	0 	0 	0 	0 	0 	
icnt2mem_lat_table:0 	0 	21724 	29 	23 	0 	1740 	0 	0 	0 	0 	2 	188 	15618 	7684 	0 	0 	0 	0 	0 	0 	0 	0 	0 	
icnt2sh_lat_table:0 	0 	22847 	8244 	321 	0 	0 	0 	0 	0 	0 	0 	0 	0 	0 	0 	0 	28 	6048 	9044 	0 	0 	0 	0 	
mf_lat_pw_table:0 	0 	0 	0 	0 	0 	0 	158 	0 	1 	0 	2 	5 	101 	57 	0 	0 	0 	0 	0 	0 	0 	0 	0 	0 	0 	0 	0 	0 	0 	0 	0 	
maximum concurrent accesses to same row:
dram[0]:        32        32        32        32        32        32        32        32        32        32        32        32        32        32        32        32 
dram[1]:        32        32        32        32        32        32        32        32        32        32        32        32        32        32        32        32 
dram[2]:        32        32        32        32        32        32        32        32        32        32        32        32        32        32        32        32 
dram[3]:        32        32        32        32        32        32        32        32        32        32        32        32        32        32        32        32 
dram[4]:        32        32        32        32        32        32        32        32        32        32        32        32        32        32        32        32 
dram[5]:        32        32        32        32        32        32        32        32        32        32        32        32        32        32        32        32 
dram[6]:        32        32        32        32        32        32        32        32        32        32        32        32        32        32        32        32 
dram[7]:        32        32        32        32        32        32        32        32        32        32        32        32        32        32        32        32 
dram[8]:        32        32        32        32        32        32        32        32        32        32        32        32        32        32        32        32 
dram[9]:        32        32        32        32        32        32        32        32        32        32        32        32        32        32        32        32 
dram[10]:        32        32        32        32        32        32        32        32        32        32        32        32        32        32        32        32 
maximum service time to same row:
dram[0]:     67639     67635     75859     76334     75871     76342     75885     76344     76161     76647     75852     75852     75879     76338     75875     76340 
dram[1]:     67640     67623     75867     76329     75861     76343     75882     76350     76163     76645     75844     76325     75868     76329     75881     76348 
dram[2]:     67638     68090     75870     76342     75866     76329     75880     76334     76161     76647     75857     76314     75868     76340     75880     76348 
dram[3]:     67637     68101     75872     76340     75860     76339     75885     76344     76161     76650     75849     76343     75871     76334     75883     76355 
dram[4]:     67637     68090     75875     76338     75857     75864     75874     76337     76161     76644     75842     76332     75867     76341     75880     76350 
dram[5]:     67642     68103     75856     76317     75858     75855     75882     76350     76163     76643     75856     76337     75879     76335     75879     76346 
dram[6]:     67645     68099     75867     76330     75857     76324     75879     76344     76161     76646     75834     76321     75870     76337     75884     76348 
dram[7]:     67645     68105     75857     76318     75859     76340     75880     76337     76165     76650     75845     76322     75876     76346     75876     76352 
dram[8]:     67643     68102     75872     76336     75865     76335     75882     76343     76163     76657     75839     76332     75871     76331     75872     76348 
dram[9]:     67632     68090     75867     76322     75861     76333     75876     76337     76162     76650     75848     76306     75879     76349     75870     75863 
dram[10]:     67640     68097     75862     76326     75858     76339     75879     76347     76162     76657     75843     75850     75866     76341     75856     75865 
average row accesses per activate:
dram[0]: 23.583334 23.500000 22.666666 22.666666 22.727272 22.727272 22.727272 22.727272 22.363636 22.363636 20.166666 20.166666 24.000000 24.000000 22.230770 22.230770 
dram[1]: 23.500000 23.500000 22.166666 22.166666 23.272728 23.272728 22.727272 22.727272 22.363636 22.363636 20.250000 20.250000 24.000000 24.000000 20.642857 24.000000 
dram[2]: 24.000000 24.000000 22.166666 22.166666 23.272728 23.272728 22.727272 22.727272 22.363636 22.363636 20.250000 20.250000 24.000000 24.000000 23.500000 23.500000 
dram[3]: 24.000000 24.000000 22.166666 22.166666 23.272728 23.272728 22.727272 22.727272 22.363636 22.363636 20.250000 20.250000 24.000000 24.000000 23.500000 23.500000 
dram[4]: 24.000000 24.000000 22.166666 22.166666 22.909090 22.909090 23.272728 23.272728 22.363636 22.363636 20.250000 20.250000 24.000000 24.000000 21.769230 21.769230 
dram[5]: 23.500000 23.500000 22.500000 22.500000 22.909090 22.909090 23.272728 23.272728 22.363636 22.363636 20.250000 20.250000 24.000000 24.000000 21.769230 21.769230 
dram[6]: 23.500000 23.500000 22.500000 22.500000 22.909090 22.909090 23.272728 23.272728 22.363636 22.363636 20.250000 20.250000 23.500000 23.500000 20.642857 22.230770 
dram[7]: 23.500000 23.500000 22.500000 22.500000 22.909090 22.909090 23.272728 23.272728 22.000000 22.000000 20.750000 20.750000 23.500000 23.500000 20.642857 20.642857 
dram[8]: 23.500000 23.500000 22.500000 22.500000 22.727272 22.727272 23.272728 23.272728 22.000000 22.000000 20.750000 20.750000 23.500000 23.500000 20.642857 20.642857 
dram[9]: 24.000000 24.000000 22.500000 22.500000 22.727272 22.727272 23.272728 23.272728 21.909090 21.909090 20.750000 20.750000 23.500000 23.500000 21.769230 20.214285 
dram[10]: 24.000000 24.000000 22.500000 22.500000 22.727272 22.727272 23.272728 23.272728 21.909090 21.909090 20.416666 20.416666 24.000000 24.000000 21.769230 21.769230 
average row locality = 46642/2070 = 22.532368
number of total memory accesses made:
dram[0]:         0         0         0         0         0         0         0         0         0         0         0         0         0         0         0         0 
dram[1]:         0         0         0         0         0         0         0         0         0         0         0         0         0         0         0         0 
dram[2]:         0         0         0         0         0         0         0         0         0         0         0         0         0         0         0         0 
dram[3]:         0         0         0         0         0         0         0         0         0         0         0         0         0         0         0         0 
dram[4]:         0         0         0         0         0         0         0         0         0         0         0         0         0         0         0         0 
dram[5]:         0         0         0         0         0         0         0         0         0         0         0         0         0         0         0         0 
dram[6]:         0         0         0         0         0         0         0         0         0         0         0         0         0         0         0         0 
dram[7]:         0         0         0         0         0         0         0         0         0         0         0         0         0         0         0         0 
dram[8]:         0         0         0         0         0         0         0         0         0         0         0         0         0         0         0         0 
dram[9]:         0         0         0         0         0         0         0         0         0         0         0         0         0         0         0         0 
dram[10]:         0         0         0         0         0         0         0         0         0         0         0         0         0         0         0         0 
total accesses: 0
min_bank_accesses = 0!
min_chip_accesses = 0!
number of total read accesses:
dram[0]:       190       189       184       184       173       173       173       173       166       166       162       162       192       192       193       193 
dram[1]:       189       189       181       181       176       176       173       173       166       166       163       163       192       192       193       192 
dram[2]:       192       192       181       181       176       176       173       173       166       166       163       163       192       192       189       189 
dram[3]:       192       192       181       181       176       176       173       173       166       166       163       163       192       192       189       189 
dram[4]:       192       192       181       181       174       174       176       176       166       166       163       163       192       192       190       190 
dram[5]:       189       189       183       183       174       174       176       176       166       166       163       163       192       192       190       190 
dram[6]:       189       189       183       183       174       174       176       176       166       166       163       163       189       189       193       193 
dram[7]:       189       189       183       183       174       174       176       176       164       164       166       166       189       189       193       193 
dram[8]:       189       189       183       183       173       173       176       176       164       164       166       166       189       189       193       193 
dram[9]:       192       192       183       183       173       173       176       176       163       163       166       166       189       189       190       190 
dram[10]:       192       192       183       183       173       173       176       176       163       163       164       164       192       192       190       190 
total reads: 31522
bank skew: 193/162 = 1.19
chip skew: 2868/2864 = 1.00
number of total write accesses:
dram[0]:        93        93        88        88        77        77        77        77        80        80        80        80        96        96        96        96 
dram[1]:        93        93        85        85        80        80        77        77        80        80        80        80        96        96        96        96 
dram[2]:        96        96        85        85        80        80        77        77        80        80        80        80        96        96        93        93 
dram[3]:        96        96        85        85        80        80        77        77        80        80        80        80        96        96        93        93 
dram[4]:        96        96        85        85        78        78        80        80        80        80        80        80        96        96        93        93 
dram[5]:        93        93        87        87        78        78        80        80        80        80        80        80        96        96        93        93 
dram[6]:        93        93        87        87        78        78        80        80        80        80        80        80        93        93        96        96 
dram[7]:        93        93        87        87        78        78        80        80        78        78        83        83        93        93        96        96 
dram[8]:        93        93        87        87        77        77        80        80        78        78        83        83        93        93        96        96 
dram[9]:        96        96        87        87        77        77        80        80        78        78        83        83        93        93        93        93 
dram[10]:        96        96        87        87        77        77        80        80        78        78        81        81        96        96        93        93 
total reads: 15120
bank skew: 96/77 = 1.25
chip skew: 1376/1374 = 1.00
average mf latency per bank:
dram[0]:      10563      3758     10418      3484     11233      3572     11422      3566     10876      3499     10654      3705      9871      3523     10196      3548
dram[1]:      10676      3760     10528      3673     11102      3372     11422      3565     10877      3500     10542      3687      9873      3523     10196      3561
dram[2]:      10568      3575     10526      3675     11102      3372     11368      3572     10876      3498     10541      3692      9946      3522     10334      3675
dram[3]:      10500      3572     10526      3675     11101      3372     11369      3569     10934      3499     10540      3767      9966      3524     10333      3676
dram[4]:      10498      3575     10527      3675     11276      3588     11232      3368     10934      3499     10537      3771      9893      3525     10314      3664
dram[5]:      10681      3684     10455      3471     11276      3588     11235      3367     10874      3495     10542      3770      9890      3526     10314      3666
dram[6]:      10681      3686     10454      3470     11189      3589     11233      3365     10874      3496     10597      3775      9984      3706     10243      3555
dram[7]:      10558      3705     10455      3471     11187      3589     11318      3370     10963      3724     10476      3559      9983      3705     10249      3552
dram[8]:      10557      3707     10532      3469     11234      3534     11315      3368     10963      3724     10418      3559      9982      3704     10233      3556
dram[9]:      10450      3576     10516      3470     11234      3533     11230      3367     10922      3655     10419      3558      9983      3704     10383      3737
dram[10]:      10452      3574     10439      3467     11272      3569     11229      3367     10920      3656     10589      3701      9889      3522     10382      3732
maximum mf latency per bank:
dram[0]:      20984     20807     20968     10650     20975     20921     20982     20643     20970     10676     20969     20785     20975     10683     20978     10618
dram[1]:      20988     20934     20960     20660     20969     10605     20993     20794     20975     10664     20979     20791     20980     10638     20965     10606
dram[2]:      20981     10636     20966     20813     20979     10588     20982     20791     20970     10686     20974     20920     20980     10641     20966     20677
dram[3]:      20989     10622     20978     20779     20971     10590     21000     20920     20974     10647     20971     20662     20965     10574     20963     20779
dram[4]:      20982     10618     20966     20894     20975     20685     20990     10654     20978     10657     20975     20807     20978     10680     20970     20794
dram[5]:      20988     20635     20965     10624     20977     20807     20991     10665     20978     10650     20971     20792     20967     10599     20974     20920
dram[6]:      20972     20783     20968     10687     20979     20788     20982     10676     20988     10673     20975     20921     20994     20648     20968     10657
dram[7]:      20992     20793     20981     10662     20975     20921     21000     10652     20979     20668     20968     10619     20962     20802     20975     10599
dram[8]:      20974     20920     20975     10661     20967     20668     20972     10634     20969     20793     20978     10663     20967     20794     20965     10619
dram[9]:      20979     10641     20972     10639     20976     20788     20999     10637     20977     20792     20966     10653     20974     20920     20974     20675
dram[10]:      20975     10625     20959     10644     20970     20794     20971     10669     20974     20920     20975     20647     20968     10666     20964     20790
Memory Partition 0: 
Cache L2_bank_000:
MSHR contents

Cache L2_bank_001:
MSHR contents

In Dram Latency Queue (total = 0): 
DRAM[0]: 16 bks, busW=4 BL=8 CL=12, tRRD=2 tCCD=6, tRCD=12 tRAS=28 tRP=12 tRC=40
n_cmd=1249988 n_nop=1232670 n_act=189 n_pre=173 n_req=4239 n_rd=11460 n_write=5496 bw_util=0.02713
n_activity=47526 dram_eff=0.7135
bk0: 760a 1242856i bk1: 756a 1242802i bk2: 736a 1242935i bk3: 736a 1243104i bk4: 692a 1243417i bk5: 692a 1243648i bk6: 692a 1243562i bk7: 692a 1243294i bk8: 664a 1243532i bk9: 664a 1243841i bk10: 648a 1243208i bk11: 648a 1243367i bk12: 768a 1242424i bk13: 768a 1242477i bk14: 772a 1242366i bk15: 772a 1242605i 
dram_util_bins: 0 0 0 0 0 0 0 0 0 0
dram_eff_bins: 0 0 0 0 0 0 0 0 0 0
mrqq: max=64 avg=0.787171
Memory Partition 1: 
Cache L2_bank_002:
MSHR contents

Cache L2_bank_003:
MSHR contents

In Dram Latency Queue (total = 0): 
DRAM[1]: 16 bks, busW=4 BL=8 CL=12, tRRD=2 tCCD=6, tRCD=12 tRAS=28 tRP=12 tRC=40
n_cmd=1249988 n_nop=1232672 n_act=188 n_pre=172 n_req=4239 n_rd=11460 n_write=5496 bw_util=0.02713
n_activity=47357 dram_eff=0.7161
bk0: 756a 1242869i bk1: 756a 1242691i bk2: 724a 1243121i bk3: 724a 1242983i bk4: 704a 1243143i bk5: 704a 1243448i bk6: 692a 1243467i bk7: 692a 1243161i bk8: 664a 1243519i bk9: 664a 1243724i bk10: 652a 1243347i bk11: 652a 1243638i bk12: 768a 1242459i bk13: 768a 1242490i bk14: 772a 1242457i bk15: 768a 1242649i 
dram_util_bins: 0 0 0 0 0 0 0 0 0 0
dram_eff_bins: 0 0 0 0 0 0 0 0 0 0
mrqq: max=64 avg=0.782012
Memory Partition 2: 
Cache L2_bank_004:
MSHR contents

Cache L2_bank_005:
MSHR contents

In Dram Latency Queue (total = 0): 
DRAM[2]: 16 bks, busW=4 BL=8 CL=12, tRRD=2 tCCD=6, tRCD=12 tRAS=28 tRP=12 tRC=40
n_cmd=1249988 n_nop=1232680 n_act=186 n_pre=170 n_req=4238 n_rd=11456 n_write=5496 bw_util=0.02712
n_activity=47399 dram_eff=0.7153
bk0: 768a 1242673i bk1: 768a 1242610i bk2: 724a 1243184i bk3: 724a 1242943i bk4: 704a 1243196i bk5: 704a 1243543i bk6: 692a 1243643i bk7: 692a 1243553i bk8: 664a 1243593i bk9: 664a 1243849i bk10: 652a 1243319i bk11: 652a 1243668i bk12: 768a 1242404i bk13: 768a 1242471i bk14: 756a 1242636i bk15: 756a 1242684i 
dram_util_bins: 0 0 0 0 0 0 0 0 0 0
dram_eff_bins: 0 0 0 0 0 0 0 0 0 0
mrqq: max=64 avg=0.783168
Memory Partition 3: 
Cache L2_bank_006:
MSHR contents

Cache L2_bank_007:
MSHR contents

In Dram Latency Queue (total = 0): 
DRAM[3]: 16 bks, busW=4 BL=8 CL=12, tRRD=2 tCCD=6, tRCD=12 tRAS=28 tRP=12 tRC=40
n_cmd=1249988 n_nop=1232680 n_act=186 n_pre=170 n_req=4238 n_rd=11456 n_write=5496 bw_util=0.02712
n_activity=47399 dram_eff=0.7153
bk0: 768a 1242652i bk1: 768a 1242441i bk2: 724a 1243148i bk3: 724a 1243194i bk4: 704a 1243194i bk5: 704a 1243510i bk6: 692a 1243537i bk7: 692a 1243586i bk8: 664a 1243570i bk9: 664a 1243830i bk10: 652a 1243497i bk11: 652a 1243380i bk12: 768a 1242443i bk13: 768a 1242450i bk14: 756a 1242632i bk15: 756a 1242536i 
dram_util_bins: 0 0 0 0 0 0 0 0 0 0
dram_eff_bins: 0 0 0 0 0 0 0 0 0 0
mrqq: max=64 avg=0.778653
Memory Partition 4: 
Cache L2_bank_008:
MSHR contents

Cache L2_bank_009:
MSHR contents

In Dram Latency Queue (total = 0): 
DRAM[4]: 16 bks, busW=4 BL=8 CL=12, tRRD=2 tCCD=6, tRCD=12 tRAS=28 tRP=12 tRC=40
n_cmd=1249988 n_nop=1232652 n_act=188 n_pre=172 n_req=4244 n_rd=11472 n_write=5504 bw_util=0.02716
n_activity=47412 dram_eff=0.7161
bk0: 768a 1242661i bk1: 768a 1242556i bk2: 724a 1243183i bk3: 724a 1243167i bk4: 696a 1243233i bk5: 696a 1243219i bk6: 704a 1243469i bk7: 704a 1243411i bk8: 664a 1243518i bk9: 664a 1243803i bk10: 652a 1243378i bk11: 652a 1243470i bk12: 768a 1242366i bk13: 768a 1242529i bk14: 760a 1242626i bk15: 760a 1242786i 
dram_util_bins: 0 0 0 0 0 0 0 0 0 0
dram_eff_bins: 0 0 0 0 0 0 0 0 0 0
mrqq: max=64 avg=0.782984
Memory Partition 5: 
Cache L2_bank_010:
MSHR contents

Cache L2_bank_011:
MSHR contents
MSHR: tag=0xc03e9480, atomic=0 1 entries : 0x7ffa39155280 :  mf: uid=644064, sid09:w06, part=5, addr=0xc03e9480, load , size=128, unknown  status = IN_PARTITION_DRAM (895325), 

In Dram Latency Queue (total = 0): 
DRAM[5]: 16 bks, busW=4 BL=8 CL=12, tRRD=2 tCCD=6, tRCD=12 tRAS=28 tRP=12 tRC=40
n_cmd=1249988 n_nop=1232668 n_act=188 n_pre=172 n_req=4240 n_rd=11464 n_write=5496 bw_util=0.02714
n_activity=47473 dram_eff=0.7145
bk0: 756a 1242849i bk1: 756a 1242533i bk2: 732a 1242983i bk3: 732a 1243115i bk4: 696a 1243252i bk5: 696a 1243200i bk6: 704a 1243341i bk7: 704a 1243412i bk8: 664a 1243575i bk9: 664a 1243827i bk10: 652a 1243448i bk11: 652a 1243748i bk12: 768a 1242488i bk13: 768a 1242530i bk14: 760a 1242592i bk15: 760a 1242740i 
dram_util_bins: 0 0 0 0 0 0 0 0 0 0
dram_eff_bins: 0 0 0 0 0 0 0 0 0 0
mrqq: max=64 avg=0.783378
Memory Partition 6: 
Cache L2_bank_012:
MSHR contents

Cache L2_bank_013:
MSHR contents
MSHR: tag=0xc03e8a80, atomic=0 1 entries : 0x7ffa30037200 :  mf: uid=644044, sid07:w05, part=6, addr=0xc03e8a80, load , size=128, unknown  status = IN_PARTITION_DRAM (895324), 

In Dram Latency Queue (total = 0): 
DRAM[6]: 16 bks, busW=4 BL=8 CL=12, tRRD=2 tCCD=6, tRCD=12 tRAS=28 tRP=12 tRC=40
n_cmd=1249988 n_nop=1232666 n_act=189 n_pre=173 n_req=4240 n_rd=11464 n_write=5496 bw_util=0.02714
n_activity=47522 dram_eff=0.7138
bk0: 756a 1242880i bk1: 756a 1242588i bk2: 732a 1243050i bk3: 732a 1243155i bk4: 696a 1243267i bk5: 696a 1243503i bk6: 704a 1243392i bk7: 704a 1243360i bk8: 664a 1243540i bk9: 664a 1243895i bk10: 652a 1243418i bk11: 652a 1243611i bk12: 756a 1242594i bk13: 756a 1242382i bk14: 772a 1242416i bk15: 772a 1242557i 
dram_util_bins: 0 0 0 0 0 0 0 0 0 0
dram_eff_bins: 0 0 0 0 0 0 0 0 0 0
mrqq: max=64 avg=0.779807
Memory Partition 7: 
Cache L2_bank_014:
MSHR contents

Cache L2_bank_015:
MSHR contents
MSHR: tag=0xc03e9680, atomic=0 1 entries : 0x7ffa38af54c0 :  mf: uid=644057, sid09:w07, part=7, addr=0xc03e9680, load , size=128, unknown  status = IN_PARTITION_DRAM (895325), 

In Dram Latency Queue (total = 0): 
DRAM[7]: 16 bks, busW=4 BL=8 CL=12, tRRD=2 tCCD=6, tRCD=12 tRAS=28 tRP=12 tRC=40
n_cmd=1249988 n_nop=1232650 n_act=190 n_pre=174 n_req=4244 n_rd=11470 n_write=5504 bw_util=0.02716
n_activity=47491 dram_eff=0.7148
bk0: 756a 1242867i bk1: 754a 1242712i bk2: 732a 1242969i bk3: 732a 1243134i bk4: 696a 1243259i bk5: 696a 1243518i bk6: 704a 1243271i bk7: 704a 1243353i bk8: 656a 1243641i bk9: 656a 1243637i bk10: 664a 1243343i bk11: 664a 1243574i bk12: 756a 1242606i bk13: 756a 1242366i bk14: 772a 1242256i bk15: 772a 1242537i 
dram_util_bins: 0 0 0 0 0 0 0 0 0 0
dram_eff_bins: 0 0 0 0 0 0 0 0 0 0
mrqq: max=64 avg=0.782101
Memory Partition 8: 
Cache L2_bank_016:
MSHR contents

Cache L2_bank_017:
MSHR contents
MSHR: tag=0xc03ead80, atomic=0 1 entries : 0x7ffa3af98950 :  mf: uid=644058, sid16:w06, part=8, addr=0xc03ead80, load , size=128, unknown  status = IN_PARTITION_DRAM (895325), 

In Dram Latency Queue (total = 0): 
DRAM[8]: 16 bks, busW=4 BL=8 CL=12, tRRD=2 tCCD=6, tRCD=12 tRAS=28 tRP=12 tRC=40
n_cmd=1249988 n_nop=1232664 n_act=190 n_pre=174 n_req=4240 n_rd=11464 n_write=5496 bw_util=0.02714
n_activity=47436 dram_eff=0.7151
bk0: 756a 1242765i bk1: 756a 1242791i bk2: 732a 1242971i bk3: 732a 1243151i bk4: 692a 1243414i bk5: 692a 1243367i bk6: 704a 1243245i bk7: 704a 1243305i bk8: 656a 1243666i bk9: 656a 1243547i bk10: 664a 1243279i bk11: 664a 1243454i bk12: 756a 1242615i bk13: 756a 1242635i bk14: 772a 1242323i bk15: 772a 1242499i 
dram_util_bins: 0 0 0 0 0 0 0 0 0 0
dram_eff_bins: 0 0 0 0 0 0 0 0 0 0
mrqq: max=64 avg=0.777847
Memory Partition 9: 
Cache L2_bank_018:
MSHR contents

Cache L2_bank_019:
MSHR contents
MSHR: tag=0xc03ea380, atomic=0 1 entries : 0x7ffa50c77c80 :  mf: uid=644026, sid14:w05, part=9, addr=0xc03ea380, load , size=128, unknown  status = IN_PARTITION_DRAM (895324), 

In Dram Latency Queue (total = 0): 
DRAM[9]: 16 bks, busW=4 BL=8 CL=12, tRRD=2 tCCD=6, tRCD=12 tRAS=28 tRP=12 tRC=40
n_cmd=1249988 n_nop=1232674 n_act=189 n_pre=173 n_req=4238 n_rd=11456 n_write=5496 bw_util=0.02712
n_activity=47532 dram_eff=0.7133
bk0: 768a 1242734i bk1: 768a 1242608i bk2: 732a 1243103i bk3: 732a 1243192i bk4: 692a 1243477i bk5: 692a 1243349i bk6: 704a 1243314i bk7: 704a 1243354i bk8: 652a 1243672i bk9: 652a 1243935i bk10: 664a 1243284i bk11: 664a 1243507i bk12: 756a 1242523i bk13: 756a 1242663i bk14: 760a 1242415i bk15: 760a 1242235i 
dram_util_bins: 0 0 0 0 0 0 0 0 0 0
dram_eff_bins: 0 0 0 0 0 0 0 0 0 0
mrqq: max=64 avg=0.782814
Memory Partition 10: 
Cache L2_bank_020:
MSHR contents

Cache L2_bank_021:
MSHR contents
MSHR: tag=0xc03e9980, atomic=0 1 entries : 0x7ffa381adc70 :  mf: uid=644068, sid12:w04, part=10, addr=0xc03e9980, load , size=128, unknown  status = IN_PARTITION_DRAM (895325), 

In Dram Latency Queue (total = 0): 
DRAM[10]: 16 bks, busW=4 BL=8 CL=12, tRRD=2 tCCD=6, tRCD=12 tRAS=28 tRP=12 tRC=40
n_cmd=1249988 n_nop=1232660 n_act=188 n_pre=172 n_req=4242 n_rd=11464 n_write=5504 bw_util=0.02715
n_activity=47575 dram_eff=0.7133
bk0: 768a 1242650i bk1: 768a 1242507i bk2: 732a 1242972i bk3: 732a 1243204i bk4: 692a 1243441i bk5: 692a 1243645i bk6: 704a 1243332i bk7: 704a 1243417i bk8: 652a 1243736i bk9: 652a 1243920i bk10: 656a 1243310i bk11: 656a 1243466i bk12: 768a 1242385i bk13: 768a 1242481i bk14: 760a 1242362i bk15: 760a 1242303i 
dram_util_bins: 0 0 0 0 0 0 0 0 0 0
dram_eff_bins: 0 0 0 0 0 0 0 0 0 0
mrqq: max=64 avg=0.782095

========= L2 cache stats =========
L2_cache_bank[0]: Access = 2169, Miss = 1433, Miss_rate = 0.661, Pending_hits = 35, Reservation_fails = 0
L2_cache_bank[1]: Access = 2140, Miss = 1432, Miss_rate = 0.669, Pending_hits = 1, Reservation_fails = 0
L2_cache_bank[2]: Access = 2141, Miss = 1433, Miss_rate = 0.669, Pending_hits = 6, Reservation_fails = 0
L2_cache_bank[3]: Access = 2114, Miss = 1432, Miss_rate = 0.677, Pending_hits = 0, Reservation_fails = 0
L2_cache_bank[4]: Access = 2115, Miss = 1432, Miss_rate = 0.677, Pending_hits = 6, Reservation_fails = 0
L2_cache_bank[5]: Access = 2115, Miss = 1432, Miss_rate = 0.677, Pending_hits = 0, Reservation_fails = 0
L2_cache_bank[6]: Access = 2113, Miss = 1432, Miss_rate = 0.678, Pending_hits = 5, Reservation_fails = 0
L2_cache_bank[7]: Access = 2112, Miss = 1432, Miss_rate = 0.678, Pending_hits = 0, Reservation_fails = 0
L2_cache_bank[8]: Access = 2142, Miss = 1434, Miss_rate = 0.669, Pending_hits = 32, Reservation_fails = 0
L2_cache_bank[9]: Access = 2143, Miss = 1434, Miss_rate = 0.669, Pending_hits = 27, Reservation_fails = 0
L2_cache_bank[10]: Access = 2142, Miss = 1433, Miss_rate = 0.669, Pending_hits = 33, Reservation_fails = 0
L2_cache_bank[11]: Access = 2141, Miss = 1433, Miss_rate = 0.669, Pending_hits = 27, Reservation_fails = 0
L2_cache_bank[12]: Access = 2140, Miss = 1433, Miss_rate = 0.670, Pending_hits = 33, Reservation_fails = 0
L2_cache_bank[13]: Access = 2141, Miss = 1433, Miss_rate = 0.669, Pending_hits = 27, Reservation_fails = 0
L2_cache_bank[14]: Access = 2144, Miss = 1434, Miss_rate = 0.669, Pending_hits = 33, Reservation_fails = 0
L2_cache_bank[15]: Access = 2144, Miss = 1434, Miss_rate = 0.669, Pending_hits = 27, Reservation_fails = 0
L2_cache_bank[16]: Access = 2142, Miss = 1433, Miss_rate = 0.669, Pending_hits = 33, Reservation_fails = 0
L2_cache_bank[17]: Access = 2141, Miss = 1433, Miss_rate = 0.669, Pending_hits = 27, Reservation_fails = 0
L2_cache_bank[18]: Access = 2140, Miss = 1432, Miss_rate = 0.669, Pending_hits = 8, Reservation_fails = 0
L2_cache_bank[19]: Access = 2141, Miss = 1432, Miss_rate = 0.669, Pending_hits = 1, Reservation_fails = 0
L2_cache_bank[20]: Access = 2144, Miss = 1433, Miss_rate = 0.668, Pending_hits = 6, Reservation_fails = 0
L2_cache_bank[21]: Access = 2144, Miss = 1433, Miss_rate = 0.668, Pending_hits = 3, Reservation_fails = 0
L2_total_cache_accesses = 47008
L2_total_cache_misses = 31522
L2_total_cache_miss_rate = 0.6706
L2_total_cache_pending_hits = 370
L2_total_cache_reservation_fails = 0
L2_total_cache_breakdown:
	L2_cache_stats_breakdown[GLOBAL_ACC_R][HIT] = 14940
	L2_cache_stats_breakdown[GLOBAL_ACC_R][HIT_RESERVED] = 60
	L2_cache_stats_breakdown[GLOBAL_ACC_R][MISS] = 16384
	L2_cache_stats_breakdown[GLOBAL_ACC_R][RESERVATION_FAIL] = 0
	L2_cache_stats_breakdown[LOCAL_ACC_R][HIT] = 0
	L2_cache_stats_breakdown[LOCAL_ACC_R][HIT_RESERVED] = 0
	L2_cache_stats_breakdown[LOCAL_ACC_R][MISS] = 0
	L2_cache_stats_breakdown[LOCAL_ACC_R][RESERVATION_FAIL] = 0
	L2_cache_stats_breakdown[CONST_ACC_R][HIT] = 0
	L2_cache_stats_breakdown[CONST_ACC_R][HIT_RESERVED] = 27
	L2_cache_stats_breakdown[CONST_ACC_R][MISS] = 1
	L2_cache_stats_breakdown[CONST_ACC_R][RESERVATION_FAIL] = 0
	L2_cache_stats_breakdown[TEXTURE_ACC_R][HIT] = 0
	L2_cache_stats_breakdown[TEXTURE_ACC_R][HIT_RESERVED] = 0
	L2_cache_stats_breakdown[TEXTURE_ACC_R][MISS] = 0
	L2_cache_stats_breakdown[TEXTURE_ACC_R][RESERVATION_FAIL] = 0
	L2_cache_stats_breakdown[GLOBAL_ACC_W][HIT] = 0
	L2_cache_stats_breakdown[GLOBAL_ACC_W][HIT_RESERVED] = 0
	L2_cache_stats_breakdown[GLOBAL_ACC_W][MISS] = 15120
	L2_cache_stats_breakdown[GLOBAL_ACC_W][RESERVATION_FAIL] = 0
	L2_cache_stats_breakdown[LOCAL_ACC_W][HIT] = 0
	L2_cache_stats_breakdown[LOCAL_ACC_W][HIT_RESERVED] = 0
	L2_cache_stats_breakdown[LOCAL_ACC_W][MISS] = 0
	L2_cache_stats_breakdown[LOCAL_ACC_W][RESERVATION_FAIL] = 0
	L2_cache_stats_breakdown[L1_WRBK_ACC][HIT] = 0
	L2_cache_stats_breakdown[L1_WRBK_ACC][HIT_RESERVED] = 0
	L2_cache_stats_breakdown[L1_WRBK_ACC][MISS] = 0
	L2_cache_stats_breakdown[L1_WRBK_ACC][RESERVATION_FAIL] = 0
	L2_cache_stats_breakdown[L2_WRBK_ACC][HIT] = 0
	L2_cache_stats_breakdown[L2_WRBK_ACC][HIT_RESERVED] = 0
	L2_cache_stats_breakdown[L2_WRBK_ACC][MISS] = 0
	L2_cache_stats_breakdown[L2_WRBK_ACC][RESERVATION_FAIL] = 0
	L2_cache_stats_breakdown[INST_ACC_R][HIT] = 176
	L2_cache_stats_breakdown[INST_ACC_R][HIT_RESERVED] = 283
	L2_cache_stats_breakdown[INST_ACC_R][MISS] = 17
	L2_cache_stats_breakdown[INST_ACC_R][RESERVATION_FAIL] = 0
	L2_cache_stats_breakdown[L1_WR_ALLOC_R][HIT] = 0
	L2_cache_stats_breakdown[L1_WR_ALLOC_R][HIT_RESERVED] = 0
	L2_cache_stats_breakdown[L1_WR_ALLOC_R][MISS] = 0
	L2_cache_stats_breakdown[L1_WR_ALLOC_R][RESERVATION_FAIL] = 0
	L2_cache_stats_breakdown[L2_WR_ALLOC_R][HIT] = 0
	L2_cache_stats_breakdown[L2_WR_ALLOC_R][HIT_RESERVED] = 0
	L2_cache_stats_breakdown[L2_WR_ALLOC_R][MISS] = 0
	L2_cache_stats_breakdown[L2_WR_ALLOC_R][RESERVATION_FAIL] = 0
	L2_cache_stats_breakdown[GLOBAL_ACC_R][TOTAL_ACCESS] = 31384
	L2_cache_stats_breakdown[CONST_ACC_R][TOTAL_ACCESS] = 28
	L2_cache_stats_breakdown[GLOBAL_ACC_W][TOTAL_ACCESS] = 15120
	L2_cache_stats_breakdown[INST_ACC_R][TOTAL_ACCESS] = 476
L2_cache_data_port_util = 0.003
L2_cache_fill_port_util = 0.009

icnt_total_pkts_mem_to_simt=151824
icnt_total_pkts_simt_to_mem=107488
LD_mem_lat_dist  0 0 0 0 0 0 0 0 0 0 0 0 0 0 0 0 0 0 0 0 0 0 0 0 0 0 0
ST_mem_lat_dist  0 0 0 0 0 0 0 0 0 0 0 0 0 0 0 0 0 0 0 0 0 0 0 0 0 0 0
----------------------------Interconnect-DETAILS--------------------------------
Class 0:
Packet latency average = 13.3707
	minimum = 6
	maximum = 92
Network latency average = 11.7755
	minimum = 6
	maximum = 75
Slowest packet = 27
Flit latency average = 10.7665
	minimum = 6
	maximum = 71
Slowest flit = 16308
Fragmentation average = 0
	minimum = 0
	maximum = 0
Injected packet rate average = 0.00139661
	minimum = 0.0011067 (at node 0)
	maximum = 0.00165336 (at node 3)
Accepted packet rate average = 0.00139661
	minimum = 0.0011067 (at node 0)
	maximum = 0.00165336 (at node 3)
Injected flit rate average = 0.00385207
	minimum = 0.00253277 (at node 0)
	maximum = 0.00520593 (at node 28)
Accepted flit rate average= 0.00385207
	minimum = 0.00357114 (at node 0)
	maximum = 0.00532402 (at node 3)
Injected packet length average = 2.75817
Accepted packet length average = 2.75817
Total in-flight flits = 0 (0 measured)
====== Overall Traffic Statistics ======
====== Traffic class 0 ======
Packet latency average = 13.3707 (1 samples)
	minimum = 6 (1 samples)
	maximum = 92 (1 samples)
Network latency average = 11.7755 (1 samples)
	minimum = 6 (1 samples)
	maximum = 75 (1 samples)
Flit latency average = 10.7665 (1 samples)
	minimum = 6 (1 samples)
	maximum = 71 (1 samples)
Fragmentation average = 0 (1 samples)
	minimum = 0 (1 samples)
	maximum = 0 (1 samples)
Injected packet rate average = 0.00139661 (1 samples)
	minimum = 0.0011067 (1 samples)
	maximum = 0.00165336 (1 samples)
Accepted packet rate average = 0.00139661 (1 samples)
	minimum = 0.0011067 (1 samples)
	maximum = 0.00165336 (1 samples)
Injected flit rate average = 0.00385207 (1 samples)
	minimum = 0.00253277 (1 samples)
	maximum = 0.00520593 (1 samples)
Accepted flit rate average = 0.00385207 (1 samples)
	minimum = 0.00357114 (1 samples)
	maximum = 0.00532402 (1 samples)
Injected packet size average = 2.75817 (1 samples)
Accepted packet size average = 2.75817 (1 samples)
Hops average = 1 (1 samples)
----------------------------END-of-Interconnect-DETAILS-------------------------


gpgpu_simulation_time = 0 days, 0 hrs, 21 min, 53 sec (1313 sec)
gpgpu_simulation_rate = 21971 (inst/sec)
gpgpu_simulation_rate = 681 (cycle/sec)

GPGPU-Sim PTX: cudaLaunch for 0x0x401496 (mode=performance simulation) on stream 0
GPGPU-Sim PTX: pushing kernel '_Z24block2D_hybrid_coarsen_xffPfS_iii' to stream 0, gridDim= (2,32,1) blockDim = (32,4,1) 
GPGPU-Sim uArch: Shader 9 bind to kernel 2 '_Z24block2D_hybrid_coarsen_xffPfS_iii'
GPGPU-Sim uArch: Shader 10 bind to kernel 2 '_Z24block2D_hybrid_coarsen_xffPfS_iii'
GPGPU-Sim uArch: Shader 11 bind to kernel 2 '_Z24block2D_hybrid_coarsen_xffPfS_iii'
GPGPU-Sim uArch: Shader 12 bind to kernel 2 '_Z24block2D_hybrid_coarsen_xffPfS_iii'
GPGPU-Sim uArch: Shader 13 bind to kernel 2 '_Z24block2D_hybrid_coarsen_xffPfS_iii'
GPGPU-Sim uArch: Shader 14 bind to kernel 2 '_Z24block2D_hybrid_coarsen_xffPfS_iii'
GPGPU-Sim uArch: Shader 15 bind to kernel 2 '_Z24block2D_hybrid_coarsen_xffPfS_iii'
GPGPU-Sim uArch: Shader 16 bind to kernel 2 '_Z24block2D_hybrid_coarsen_xffPfS_iii'
GPGPU-Sim uArch: Shader 17 bind to kernel 2 '_Z24block2D_hybrid_coarsen_xffPfS_iii'
GPGPU-Sim uArch: Shader 18 bind to kernel 2 '_Z24block2D_hybrid_coarsen_xffPfS_iii'
GPGPU-Sim uArch: Shader 19 bind to kernel 2 '_Z24block2D_hybrid_coarsen_xffPfS_iii'
GPGPU-Sim uArch: Shader 20 bind to kernel 2 '_Z24block2D_hybrid_coarsen_xffPfS_iii'
GPGPU-Sim uArch: Shader 21 bind to kernel 2 '_Z24block2D_hybrid_coarsen_xffPfS_iii'
GPGPU-Sim uArch: Shader 22 bind to kernel 2 '_Z24block2D_hybrid_coarsen_xffPfS_iii'
GPGPU-Sim uArch: Shader 23 bind to kernel 2 '_Z24block2D_hybrid_coarsen_xffPfS_iii'
GPGPU-Sim uArch: Shader 24 bind to kernel 2 '_Z24block2D_hybrid_coarsen_xffPfS_iii'
GPGPU-Sim uArch: Shader 25 bind to kernel 2 '_Z24block2D_hybrid_coarsen_xffPfS_iii'
GPGPU-Sim uArch: Shader 26 bind to kernel 2 '_Z24block2D_hybrid_coarsen_xffPfS_iii'
GPGPU-Sim uArch: Shader 27 bind to kernel 2 '_Z24block2D_hybrid_coarsen_xffPfS_iii'
GPGPU-Sim uArch: Shader 0 bind to kernel 2 '_Z24block2D_hybrid_coarsen_xffPfS_iii'
GPGPU-Sim uArch: Shader 1 bind to kernel 2 '_Z24block2D_hybrid_coarsen_xffPfS_iii'
GPGPU-Sim uArch: Shader 2 bind to kernel 2 '_Z24block2D_hybrid_coarsen_xffPfS_iii'
GPGPU-Sim uArch: Shader 3 bind to kernel 2 '_Z24block2D_hybrid_coarsen_xffPfS_iii'
GPGPU-Sim uArch: Shader 4 bind to kernel 2 '_Z24block2D_hybrid_coarsen_xffPfS_iii'
GPGPU-Sim uArch: Shader 5 bind to kernel 2 '_Z24block2D_hybrid_coarsen_xffPfS_iii'
GPGPU-Sim uArch: Shader 6 bind to kernel 2 '_Z24block2D_hybrid_coarsen_xffPfS_iii'
GPGPU-Sim uArch: Shader 7 bind to kernel 2 '_Z24block2D_hybrid_coarsen_xffPfS_iii'
GPGPU-Sim uArch: Shader 8 bind to kernel 2 '_Z24block2D_hybrid_coarsen_xffPfS_iii'
Destroy streams for kernel 2: size 0
kernel_name = _Z24block2D_hybrid_coarsen_xffPfS_iii 
kernel_launch_uid = 2 
gpu_sim_cycle = 53428
gpu_sim_insn = 28848876
gpu_ipc =     539.9580
gpu_tot_sim_cycle = 1170904
gpu_tot_sim_insn = 57697752
gpu_tot_ipc =      49.2762
gpu_tot_issued_cta = 128
max_total_param_size = 0
gpu_stall_dramfull = 50
gpu_stall_icnt2sh    = 10289
partiton_reqs_in_parallel = 1175416
partiton_reqs_in_parallel_total    = 14809822
partiton_level_parallism =      22.0000
partiton_level_parallism_total  =      13.6520
partiton_reqs_in_parallel_util = 1175416
partiton_reqs_in_parallel_util_total    = 14809822
gpu_sim_cycle_parition_util = 53428
gpu_tot_sim_cycle_parition_util    = 673176
partiton_level_parallism_util =      22.0000
partiton_level_parallism_util_total  =      21.9999
partiton_replys_in_parallel = 46504
partiton_replys_in_parallel_total    = 47008
L2_BW  =      82.5005 GB/Sec
L2_BW_total  =       7.5697 GB/Sec
gpu_total_sim_rate=39037

========= Core cache stats =========
L1I_cache:
	L1I_total_cache_accesses = 1158456
	L1I_total_cache_misses = 3182
	L1I_total_cache_miss_rate = 0.0027
	L1I_total_cache_pending_hits = 0
	L1I_total_cache_reservation_fails = 0
L1D_cache:
	L1D_cache_core[0]: Access = 0, Miss = 0, Miss_rate = -nan, Pending_hits = 0, Reservation_fails = 0
	L1D_cache_core[1]: Access = 0, Miss = 0, Miss_rate = -nan, Pending_hits = 0, Reservation_fails = 0
	L1D_cache_core[2]: Access = 0, Miss = 0, Miss_rate = -nan, Pending_hits = 0, Reservation_fails = 0
	L1D_cache_core[3]: Access = 0, Miss = 0, Miss_rate = -nan, Pending_hits = 0, Reservation_fails = 0
	L1D_cache_core[4]: Access = 0, Miss = 0, Miss_rate = -nan, Pending_hits = 0, Reservation_fails = 0
	L1D_cache_core[5]: Access = 0, Miss = 0, Miss_rate = -nan, Pending_hits = 0, Reservation_fails = 0
	L1D_cache_core[6]: Access = 0, Miss = 0, Miss_rate = -nan, Pending_hits = 0, Reservation_fails = 0
	L1D_cache_core[7]: Access = 0, Miss = 0, Miss_rate = -nan, Pending_hits = 0, Reservation_fails = 0
	L1D_cache_core[8]: Access = 0, Miss = 0, Miss_rate = -nan, Pending_hits = 0, Reservation_fails = 0
	L1D_cache_core[9]: Access = 0, Miss = 0, Miss_rate = -nan, Pending_hits = 0, Reservation_fails = 0
	L1D_cache_core[10]: Access = 0, Miss = 0, Miss_rate = -nan, Pending_hits = 0, Reservation_fails = 0
	L1D_cache_core[11]: Access = 0, Miss = 0, Miss_rate = -nan, Pending_hits = 0, Reservation_fails = 0
	L1D_cache_core[12]: Access = 0, Miss = 0, Miss_rate = -nan, Pending_hits = 0, Reservation_fails = 0
	L1D_cache_core[13]: Access = 0, Miss = 0, Miss_rate = -nan, Pending_hits = 0, Reservation_fails = 0
	L1D_cache_core[14]: Access = 0, Miss = 0, Miss_rate = -nan, Pending_hits = 0, Reservation_fails = 0
	L1D_cache_core[15]: Access = 0, Miss = 0, Miss_rate = -nan, Pending_hits = 0, Reservation_fails = 0
	L1D_cache_core[16]: Access = 0, Miss = 0, Miss_rate = -nan, Pending_hits = 0, Reservation_fails = 0
	L1D_cache_core[17]: Access = 0, Miss = 0, Miss_rate = -nan, Pending_hits = 0, Reservation_fails = 0
	L1D_cache_core[18]: Access = 0, Miss = 0, Miss_rate = -nan, Pending_hits = 0, Reservation_fails = 0
	L1D_cache_core[19]: Access = 0, Miss = 0, Miss_rate = -nan, Pending_hits = 0, Reservation_fails = 0
	L1D_cache_core[20]: Access = 0, Miss = 0, Miss_rate = -nan, Pending_hits = 0, Reservation_fails = 0
	L1D_cache_core[21]: Access = 0, Miss = 0, Miss_rate = -nan, Pending_hits = 0, Reservation_fails = 0
	L1D_cache_core[22]: Access = 0, Miss = 0, Miss_rate = -nan, Pending_hits = 0, Reservation_fails = 0
[...]
Shader3: Page_table_access:3673 Page_hit: 2532 Page_miss: 1141 Page_hit_rate: 0.689355
Shader4: Page_table_access:3674 Page_hit: 2533 Page_miss: 1141 Page_hit_rate: 0.689439
Shader5: Page_table_access:3721 Page_hit: 2609 Page_miss: 1112 Page_hit_rate: 0.701156
Shader6: Page_table_access:3768 Page_hit: 2656 Page_miss: 1112 Page_hit_rate: 0.704883
Shader7: Page_table_access:3679 Page_hit: 2597 Page_miss: 1082 Page_hit_rate: 0.705898
Shader8: Page_table_access:3662 Page_hit: 2580 Page_miss: 1082 Page_hit_rate: 0.704533
Shader9: Page_table_access:3710 Page_hit: 2957 Page_miss: 753 Page_hit_rate: 0.797035
Shader10: Page_table_access:3763 Page_hit: 3010 Page_miss: 753 Page_hit_rate: 0.799894
Shader11: Page_table_access:3551 Page_hit: 2799 Page_miss: 752 Page_hit_rate: 0.788229
Shader12: Page_table_access:3550 Page_hit: 2798 Page_miss: 752 Page_hit_rate: 0.788169
Shader13: Page_table_access:3582 Page_hit: 2830 Page_miss: 752 Page_hit_rate: 0.790061
Shader14: Page_table_access:3643 Page_hit: 2891 Page_miss: 752 Page_hit_rate: 0.793577
Shader15: Page_table_access:3594 Page_hit: 2842 Page_miss: 752 Page_hit_rate: 0.790762
Shader16: Page_table_access:3569 Page_hit: 2817 Page_miss: 752 Page_hit_rate: 0.789297
Shader17: Page_table_access:3691 Page_hit: 2943 Page_miss: 748 Page_hit_rate: 0.797345
Shader18: Page_table_access:3748 Page_hit: 3000 Page_miss: 748 Page_hit_rate: 0.800427
Shader19: Page_table_access:3553 Page_hit: 2805 Page_miss: 748 Page_hit_rate: 0.789474
Shader20: Page_table_access:3550 Page_hit: 2802 Page_miss: 748 Page_hit_rate: 0.789296
Shader21: Page_table_access:3575 Page_hit: 2827 Page_miss: 748 Page_hit_rate: 0.790769
Shader22: Page_table_access:3621 Page_hit: 2873 Page_miss: 748 Page_hit_rate: 0.793427
Shader23: Page_table_access:3586 Page_hit: 2838 Page_miss: 748 Page_hit_rate: 0.791411
Shader24: Page_table_access:3556 Page_hit: 2808 Page_miss: 748 Page_hit_rate: 0.789651
Shader25: Page_table_access:3699 Page_hit: 2951 Page_miss: 748 Page_hit_rate: 0.797783
Shader26: Page_table_access:3723 Page_hit: 2975 Page_miss: 748 Page_hit_rate: 0.799087
Shader27: Page_table_access:3540 Page_hit: 2791 Page_miss: 749 Page_hit_rate: 0.788418
Page_talbe_tot_access: 102128 Page_tot_hit: 78298, Page_tot_miss 23830, Page_tot_hit_rate: 0.766665 Page_tot_fault: 65 Page_tot_pending: 23765
Total_memory_access_page_fault: 65, Average_latency: 582366.625000
========================================Page threshing statistics==============================
Page_validate: 1024 Page_evict_diry: 0 Page_evict_not_diry: 0
Page_tot_thresh: 0
========================================Memory access statistics==============================
========================================Prefetch statistics==============================
Tot_page_hit: 0, Tot_page_miss: 0, Tot_page_fault: 0
Avg_page_latency: 0.000000, Avg_prefetch_size: -nan, Avg_prefetch_latency: 0.000000
========================================Rdma statistics==============================
Rdma_read: 0
Rdma_migration_read 0
Rdma_migration_write 0
========================================PCI-e statistics==============================
Pcie_read_utilization: 0.521981
[0-25]: 0.229014, [26-50]: 0.009391, [51-75]: 0.761596, [76-100]: 0.000000
Pcie_write_utilization: 0.000000
[0-25]: -nan, [26-50]: -nan, [51-75]: -nan, [76-100]: -nan
F:   222150----T:   895326 	 	 	 Kl: 1 	 Sm: 0 	 T: kernel_launch(454.541534)
F:   223546----T:   228187 	 St: c0000000 Sz: 28672 	 Sm: 0 	 T: memcpy_h2d(3.133693)
F:   228187----T:   233702 	 St: c0007000 Sz: 36864 	 Sm: 0 	 T: memcpy_h2d(3.723835)
F:   233702----T:   238343 	 St: c0010000 Sz: 28672 	 Sm: 0 	 T: memcpy_h2d(3.133693)
F:   238343----T:   243858 	 St: c0017000 Sz: 36864 	 Sm: 0 	 T: memcpy_h2d(3.723835)
F:   243858----T:   246463 	 St: c0020000 Sz: 4096 	 Sm: 0 	 T: memcpy_h2d(1.758947)
F:   246463----T:   254703 	 St: c0021000 Sz: 61440 	 Sm: 0 	 T: memcpy_h2d(5.563808)
F:   254703----T:   257308 	 St: c0210000 Sz: 4096 	 Sm: 0 	 T: memcpy_h2d(1.758947)
F:   257308----T:   265548 	 St: c0211000 Sz: 61440 	 Sm: 0 	 T: memcpy_h2d(5.563808)
F:   265548----T:   268153 	 St: c0030000 Sz: 4096 	 Sm: 0 	 T: memcpy_h2d(1.758947)
F:   268153----T:   276393 	 St: c0031000 Sz: 61440 	 Sm: 0 	 T: memcpy_h2d(5.563808)
F:   276393----T:   278998 	 St: c0220000 Sz: 4096 	 Sm: 0 	 T: memcpy_h2d(1.758947)
F:   278998----T:   287238 	 St: c0221000 Sz: 61440 	 Sm: 0 	 T: memcpy_h2d(5.563808)
F:   287238----T:   289843 	 St: c0040000 Sz: 4096 	 Sm: 0 	 T: memcpy_h2d(1.758947)
F:   289843----T:   298083 	 St: c0041000 Sz: 61440 	 Sm: 0 	 T: memcpy_h2d(5.563808)
F:   298083----T:   300688 	 St: c0230000 Sz: 4096 	 Sm: 0 	 T: memcpy_h2d(1.758947)
F:   300688----T:   308928 	 St: c0231000 Sz: 61440 	 Sm: 0 	 T: memcpy_h2d(5.563808)
F:   308928----T:   311533 	 St: c0050000 Sz: 4096 	 Sm: 0 	 T: memcpy_h2d(1.758947)
F:   311533----T:   319773 	 St: c0051000 Sz: 61440 	 Sm: 0 	 T: memcpy_h2d(5.563808)
F:   319773----T:   322378 	 St: c0240000 Sz: 4096 	 Sm: 0 	 T: memcpy_h2d(1.758947)
F:   322378----T:   330618 	 St: c0241000 Sz: 61440 	 Sm: 0 	 T: memcpy_h2d(5.563808)
F:   330618----T:   333223 	 St: c0060000 Sz: 4096 	 Sm: 0 	 T: memcpy_h2d(1.758947)
F:   333223----T:   341463 	 St: c0061000 Sz: 61440 	 Sm: 0 	 T: memcpy_h2d(5.563808)
F:   341463----T:   344068 	 St: c0250000 Sz: 4096 	 Sm: 0 	 T: memcpy_h2d(1.758947)
F:   344068----T:   352308 	 St: c0251000 Sz: 61440 	 Sm: 0 	 T: memcpy_h2d(5.563808)
F:   352308----T:   354913 	 St: c0070000 Sz: 4096 	 Sm: 0 	 T: memcpy_h2d(1.758947)
F:   354913----T:   363153 	 St: c0071000 Sz: 61440 	 Sm: 0 	 T: memcpy_h2d(5.563808)
F:   363153----T:   365758 	 St: c0260000 Sz: 4096 	 Sm: 0 	 T: memcpy_h2d(1.758947)
F:   365758----T:   373998 	 St: c0261000 Sz: 61440 	 Sm: 0 	 T: memcpy_h2d(5.563808)
F:   373998----T:   376603 	 St: c0080000 Sz: 4096 	 Sm: 0 	 T: memcpy_h2d(1.758947)
F:   376603----T:   384843 	 St: c0081000 Sz: 61440 	 Sm: 0 	 T: memcpy_h2d(5.563808)
F:   384843----T:   387448 	 St: c0270000 Sz: 4096 	 Sm: 0 	 T: memcpy_h2d(1.758947)
F:   387448----T:   395688 	 St: c0271000 Sz: 61440 	 Sm: 0 	 T: memcpy_h2d(5.563808)
F:   395688----T:   398293 	 St: c0090000 Sz: 4096 	 Sm: 0 	 T: memcpy_h2d(1.758947)
F:   398293----T:   406533 	 St: c0091000 Sz: 61440 	 Sm: 0 	 T: memcpy_h2d(5.563808)
F:   406533----T:   409138 	 St: c0280000 Sz: 4096 	 Sm: 0 	 T: memcpy_h2d(1.758947)
F:   409138----T:   417378 	 St: c0281000 Sz: 61440 	 Sm: 0 	 T: memcpy_h2d(5.563808)
F:   417378----T:   419983 	 St: c00a0000 Sz: 4096 	 Sm: 0 	 T: memcpy_h2d(1.758947)
F:   419983----T:   428223 	 St: c00a1000 Sz: 61440 	 Sm: 0 	 T: memcpy_h2d(5.563808)
F:   428223----T:   430828 	 St: c0290000 Sz: 4096 	 Sm: 0 	 T: memcpy_h2d(1.758947)
F:   430828----T:   439068 	 St: c0291000 Sz: 61440 	 Sm: 0 	 T: memcpy_h2d(5.563808)
F:   439068----T:   441673 	 St: c00b0000 Sz: 4096 	 Sm: 0 	 T: memcpy_h2d(1.758947)
F:   441673----T:   449913 	 St: c00b1000 Sz: 61440 	 Sm: 0 	 T: memcpy_h2d(5.563808)
F:   449913----T:   452518 	 St: c02a0000 Sz: 4096 	 Sm: 0 	 T: memcpy_h2d(1.758947)
F:   452518----T:   460758 	 St: c02a1000 Sz: 61440 	 Sm: 0 	 T: memcpy_h2d(5.563808)
F:   460758----T:   463363 	 St: c00c0000 Sz: 4096 	 Sm: 0 	 T: memcpy_h2d(1.758947)
F:   463363----T:   471603 	 St: c00c1000 Sz: 61440 	 Sm: 0 	 T: memcpy_h2d(5.563808)
F:   471603----T:   474208 	 St: c02b0000 Sz: 4096 	 Sm: 0 	 T: memcpy_h2d(1.758947)
F:   474208----T:   482448 	 St: c02b1000 Sz: 61440 	 Sm: 0 	 T: memcpy_h2d(5.563808)
F:   482448----T:   485053 	 St: c00d0000 Sz: 4096 	 Sm: 0 	 T: memcpy_h2d(1.758947)
F:   485053----T:   493293 	 St: c00d1000 Sz: 61440 	 Sm: 0 	 T: memcpy_h2d(5.563808)
F:   493293----T:   495898 	 St: c02c0000 Sz: 4096 	 Sm: 0 	 T: memcpy_h2d(1.758947)
F:   495898----T:   504138 	 St: c02c1000 Sz: 61440 	 Sm: 0 	 T: memcpy_h2d(5.563808)
F:   504138----T:   506743 	 St: c00e0000 Sz: 4096 	 Sm: 0 	 T: memcpy_h2d(1.758947)
F:   506743----T:   514983 	 St: c00e1000 Sz: 61440 	 Sm: 0 	 T: memcpy_h2d(5.563808)
F:   514983----T:   517588 	 St: c02d0000 Sz: 4096 	 Sm: 0 	 T: memcpy_h2d(1.758947)
F:   517588----T:   525828 	 St: c02d1000 Sz: 61440 	 Sm: 0 	 T: memcpy_h2d(5.563808)
F:   525828----T:   528433 	 St: c00f0000 Sz: 4096 	 Sm: 0 	 T: memcpy_h2d(1.758947)
F:   528433----T:   536673 	 St: c00f1000 Sz: 61440 	 Sm: 0 	 T: memcpy_h2d(5.563808)
F:   536673----T:   539278 	 St: c02e0000 Sz: 4096 	 Sm: 0 	 T: memcpy_h2d(1.758947)
F:   539278----T:   547518 	 St: c02e1000 Sz: 61440 	 Sm: 0 	 T: memcpy_h2d(5.563808)
F:   547518----T:   550123 	 St: c0100000 Sz: 4096 	 Sm: 0 	 T: memcpy_h2d(1.758947)
F:   550123----T:   558363 	 St: c0101000 Sz: 61440 	 Sm: 0 	 T: memcpy_h2d(5.563808)
F:   558363----T:   560968 	 St: c02f0000 Sz: 4096 	 Sm: 0 	 T: memcpy_h2d(1.758947)
F:   560968----T:   569208 	 St: c02f1000 Sz: 61440 	 Sm: 0 	 T: memcpy_h2d(5.563808)
F:   569208----T:   571813 	 St: c0110000 Sz: 4096 	 Sm: 0 	 T: memcpy_h2d(1.758947)
F:   571813----T:   580053 	 St: c0111000 Sz: 61440 	 Sm: 0 	 T: memcpy_h2d(5.563808)
F:   580053----T:   582658 	 St: c0300000 Sz: 4096 	 Sm: 0 	 T: memcpy_h2d(1.758947)
F:   582658----T:   590898 	 St: c0301000 Sz: 61440 	 Sm: 0 	 T: memcpy_h2d(5.563808)
F:   590898----T:   593503 	 St: c0120000 Sz: 4096 	 Sm: 0 	 T: memcpy_h2d(1.758947)
F:   593503----T:   601743 	 St: c0121000 Sz: 61440 	 Sm: 0 	 T: memcpy_h2d(5.563808)
F:   601743----T:   604348 	 St: c0310000 Sz: 4096 	 Sm: 0 	 T: memcpy_h2d(1.758947)
F:   604348----T:   612588 	 St: c0311000 Sz: 61440 	 Sm: 0 	 T: memcpy_h2d(5.563808)
F:   612588----T:   615193 	 St: c0130000 Sz: 4096 	 Sm: 0 	 T: memcpy_h2d(1.758947)
F:   615193----T:   623433 	 St: c0131000 Sz: 61440 	 Sm: 0 	 T: memcpy_h2d(5.563808)
F:   623433----T:   626038 	 St: c0320000 Sz: 4096 	 Sm: 0 	 T: memcpy_h2d(1.758947)
F:   626038----T:   634278 	 St: c0321000 Sz: 61440 	 Sm: 0 	 T: memcpy_h2d(5.563808)
F:   634278----T:   636883 	 St: c0140000 Sz: 4096 	 Sm: 0 	 T: memcpy_h2d(1.758947)
F:   636883----T:   645123 	 St: c0141000 Sz: 61440 	 Sm: 0 	 T: memcpy_h2d(5.563808)
F:   645123----T:   647728 	 St: c0330000 Sz: 4096 	 Sm: 0 	 T: memcpy_h2d(1.758947)
F:   647728----T:   655968 	 St: c0331000 Sz: 61440 	 Sm: 0 	 T: memcpy_h2d(5.563808)
F:   655968----T:   658573 	 St: c0150000 Sz: 4096 	 Sm: 0 	 T: memcpy_h2d(1.758947)
F:   658573----T:   666813 	 St: c0151000 Sz: 61440 	 Sm: 0 	 T: memcpy_h2d(5.563808)
F:   666813----T:   669418 	 St: c0340000 Sz: 4096 	 Sm: 0 	 T: memcpy_h2d(1.758947)
F:   669418----T:   677658 	 St: c0341000 Sz: 61440 	 Sm: 0 	 T: memcpy_h2d(5.563808)
F:   677658----T:   680263 	 St: c0160000 Sz: 4096 	 Sm: 0 	 T: memcpy_h2d(1.758947)
F:   680263----T:   688503 	 St: c0161000 Sz: 61440 	 Sm: 0 	 T: memcpy_h2d(5.563808)
F:   688503----T:   691108 	 St: c0350000 Sz: 4096 	 Sm: 0 	 T: memcpy_h2d(1.758947)
F:   691108----T:   699348 	 St: c0351000 Sz: 61440 	 Sm: 0 	 T: memcpy_h2d(5.563808)
F:   699348----T:   701953 	 St: c0170000 Sz: 4096 	 Sm: 0 	 T: memcpy_h2d(1.758947)
F:   701953----T:   710193 	 St: c0171000 Sz: 61440 	 Sm: 0 	 T: memcpy_h2d(5.563808)
F:   710193----T:   712798 	 St: c0360000 Sz: 4096 	 Sm: 0 	 T: memcpy_h2d(1.758947)
F:   712798----T:   721038 	 St: c0361000 Sz: 61440 	 Sm: 0 	 T: memcpy_h2d(5.563808)
F:   721038----T:   723643 	 St: c0180000 Sz: 4096 	 Sm: 0 	 T: memcpy_h2d(1.758947)
F:   723643----T:   731883 	 St: c0181000 Sz: 61440 	 Sm: 0 	 T: memcpy_h2d(5.563808)
F:   731883----T:   734488 	 St: c0370000 Sz: 4096 	 Sm: 0 	 T: memcpy_h2d(1.758947)
F:   734488----T:   742728 	 St: c0371000 Sz: 61440 	 Sm: 0 	 T: memcpy_h2d(5.563808)
F:   742728----T:   745333 	 St: c0190000 Sz: 4096 	 Sm: 0 	 T: memcpy_h2d(1.758947)
F:   745333----T:   753573 	 St: c0191000 Sz: 61440 	 Sm: 0 	 T: memcpy_h2d(5.563808)
F:   753573----T:   756178 	 St: c0380000 Sz: 4096 	 Sm: 0 	 T: memcpy_h2d(1.758947)
F:   756178----T:   764418 	 St: c0381000 Sz: 61440 	 Sm: 0 	 T: memcpy_h2d(5.563808)
F:   764418----T:   767023 	 St: c01a0000 Sz: 4096 	 Sm: 0 	 T: memcpy_h2d(1.758947)
F:   767023----T:   775263 	 St: c01a1000 Sz: 61440 	 Sm: 0 	 T: memcpy_h2d(5.563808)
F:   775263----T:   777868 	 St: c0390000 Sz: 4096 	 Sm: 0 	 T: memcpy_h2d(1.758947)
F:   777868----T:   786108 	 St: c0391000 Sz: 61440 	 Sm: 0 	 T: memcpy_h2d(5.563808)
F:   786108----T:   788713 	 St: c01b0000 Sz: 4096 	 Sm: 0 	 T: memcpy_h2d(1.758947)
F:   788713----T:   796953 	 St: c01b1000 Sz: 61440 	 Sm: 0 	 T: memcpy_h2d(5.563808)
F:   796953----T:   799558 	 St: c03a0000 Sz: 4096 	 Sm: 0 	 T: memcpy_h2d(1.758947)
F:   799558----T:   807798 	 St: c03a1000 Sz: 61440 	 Sm: 0 	 T: memcpy_h2d(5.563808)
F:   807798----T:   810403 	 St: c01c0000 Sz: 4096 	 Sm: 0 	 T: memcpy_h2d(1.758947)
F:   810403----T:   818643 	 St: c01c1000 Sz: 61440 	 Sm: 0 	 T: memcpy_h2d(5.563808)
F:   818643----T:   821248 	 St: c03b0000 Sz: 4096 	 Sm: 0 	 T: memcpy_h2d(1.758947)
F:   821248----T:   829488 	 St: c03b1000 Sz: 61440 	 Sm: 0 	 T: memcpy_h2d(5.563808)
F:   829488----T:   832093 	 St: c01d0000 Sz: 4096 	 Sm: 0 	 T: memcpy_h2d(1.758947)
F:   832093----T:   840333 	 St: c01d1000 Sz: 61440 	 Sm: 0 	 T: memcpy_h2d(5.563808)
F:   840333----T:   842938 	 St: c03c0000 Sz: 4096 	 Sm: 0 	 T: memcpy_h2d(1.758947)
F:   842938----T:   851178 	 St: c03c1000 Sz: 61440 	 Sm: 0 	 T: memcpy_h2d(5.563808)
F:   851178----T:   853783 	 St: c01e0000 Sz: 4096 	 Sm: 0 	 T: memcpy_h2d(1.758947)
F:   853783----T:   862023 	 St: c01e1000 Sz: 61440 	 Sm: 0 	 T: memcpy_h2d(5.563808)
F:   862023----T:   864628 	 St: c03d0000 Sz: 4096 	 Sm: 0 	 T: memcpy_h2d(1.758947)
F:   864628----T:   872868 	 St: c03d1000 Sz: 61440 	 Sm: 0 	 T: memcpy_h2d(5.563808)
F:   872868----T:   875473 	 St: c01f0000 Sz: 4096 	 Sm: 0 	 T: memcpy_h2d(1.758947)
F:   875473----T:   883713 	 St: c01f1000 Sz: 61440 	 Sm: 0 	 T: memcpy_h2d(5.563808)
F:   883713----T:   886318 	 St: c03e0000 Sz: 4096 	 Sm: 0 	 T: memcpy_h2d(1.758947)
F:   886318----T:   894558 	 St: c03e1000 Sz: 61440 	 Sm: 0 	 T: memcpy_h2d(5.563808)
F:  1117476----T:  1170904 	 	 	 Kl: 2 	 Sm: 0 	 T: kernel_launch(36.075626)
F:  1117860----T:  1121290 	 St: c0200000 Sz: 16384 	 Sm: 0 	 T: memcpy_h2d(2.316003)
F:  1121290----T:  1123895 	 St: c0204000 Sz: 4096 	 Sm: 0 	 T: memcpy_h2d(1.758947)
F:  1123895----T:  1130307 	 St: c0205000 Sz: 45056 	 Sm: 0 	 T: memcpy_h2d(4.329507)
F:  1155600----T:  1158686 	 St: c03f0000 Sz: 12288 	 Sm: 0 	 T: memcpy_h2d(2.083727)
F:  1158686----T:  1166008 	 St: c03f3000 Sz: 53248 	 Sm: 0 	 T: memcpy_h2d(4.943957)
F:  1393054----T:  1434658 	 	 	 Kl: 3 	 Sm: 0 	 T: kernel_launch(28.091829)
F:  1656808----T:  1698682 	 	 	 Kl: 4 	 Sm: 0 	 T: kernel_launch(28.274139)
F:  1920832----T:  1962127 	 	 	 Kl: 5 	 Sm: 0 	 T: kernel_launch(27.883186)
F:  2184277----T:  2225899 	 	 	 Kl: 6 	 Sm: 0 	 T: kernel_launch(28.103983)
F:  2448049----T:  2489407 	 	 	 Kl: 7 	 Sm: 0 	 T: kernel_launch(27.925726)
F:  2711557----T:  2750981 	 	 	 Kl: 8 	 Sm: 0 	 T: kernel_launch(26.619852)
F:  2973131----T:  3012126 	 	 	 Kl: 9 	 Sm: 0 	 T: kernel_launch(26.330183)
F:  3234276----T:  3273441 	 	 	 Kl: 10 	 Sm: 0 	 T: kernel_launch(26.444969)
F:  3495591----T:  3534388 	 	 	 Kl: 11 	 Sm: 0 	 T: kernel_launch(26.196489)
F:  3756538----T:  3795989 	 	 	 Kl: 12 	 Sm: 0 	 T: kernel_launch(26.638083)
F:  4018139----T:  4057078 	 	 	 Kl: 13 	 Sm: 0 	 T: kernel_launch(26.292370)
F:  4279228----T:  4318715 	 	 	 Kl: 14 	 Sm: 0 	 T: kernel_launch(26.662390)
F:  4540865----T:  4579688 	 	 	 Kl: 15 	 Sm: 0 	 T: kernel_launch(26.214045)
F:  4801838----T:  4840927 	 	 	 Kl: 16 	 Sm: 0 	 T: kernel_launch(26.393654)
F:  5063077----T:  5102039 	 	 	 Kl: 17 	 Sm: 0 	 T: kernel_launch(26.307899)
F:  5324189----T:  5363549 	 	 	 Kl: 18 	 Sm: 0 	 T: kernel_launch(26.576637)
F:  5585699----T:  5624393 	 	 	 Kl: 19 	 Sm: 0 	 T: kernel_launch(26.126942)
F:  5846543----T:  5885697 	 	 	 Kl: 20 	 Sm: 0 	 T: kernel_launch(26.437542)
F:  6107847----T:  6146789 	 	 	 Kl: 21 	 Sm: 0 	 T: kernel_launch(26.294395)
F:  6368939----T:  6408222 	 	 	 Kl: 22 	 Sm: 0 	 T: kernel_launch(26.524645)
F:  6630372----T:  6669168 	 	 	 Kl: 23 	 Sm: 0 	 T: kernel_launch(26.195814)
F:  6891318----T:  6930425 	 	 	 Kl: 24 	 Sm: 0 	 T: kernel_launch(26.405807)
F:  7152575----T:  7191482 	 	 	 Kl: 25 	 Sm: 0 	 T: kernel_launch(26.270763)
F:  7413632----T:  7452653 	 	 	 Kl: 26 	 Sm: 0 	 T: kernel_launch(26.347738)
F:  7674803----T:  7713658 	 	 	 Kl: 27 	 Sm: 0 	 T: kernel_launch(26.235651)
F:  7935808----T:  7974824 	 	 	 Kl: 28 	 Sm: 0 	 T: kernel_launch(26.344362)
F:  8196974----T:  8235757 	 	 	 Kl: 29 	 Sm: 0 	 T: kernel_launch(26.187037)
F:  8457907----T:  8497254 	 	 	 Kl: 30 	 Sm: 0 	 T: kernel_launch(26.567860)
F:  8719404----T:  8758356 	 	 	 Kl: 31 	 Sm: 0 	 T: kernel_launch(26.301147)
F:  8980506----T:  9019792 	 	 	 Kl: 32 	 Sm: 0 	 T: kernel_launch(26.526670)
F:  9241942----T:  9281069 	 	 	 Kl: 33 	 Sm: 0 	 T: kernel_launch(26.419312)
F:  9503219----T:  9542620 	 	 	 Kl: 34 	 Sm: 0 	 T: kernel_launch(26.604321)
F:  9764770----T:  9803608 	 	 	 Kl: 35 	 Sm: 0 	 T: kernel_launch(26.224173)
F: 10025758----T: 10064985 	 	 	 Kl: 36 	 Sm: 0 	 T: kernel_launch(26.486834)
F: 10287135----T: 10326018 	 	 	 Kl: 37 	 Sm: 0 	 T: kernel_launch(26.254559)
F: 10548168----T: 10587362 	 	 	 Kl: 38 	 Sm: 0 	 T: kernel_launch(26.464552)
F: 10809512----T: 10848228 	 	 	 Kl: 39 	 Sm: 0 	 T: kernel_launch(26.141796)
F: 11070378----T: 11109700 	 	 	 Kl: 40 	 Sm: 0 	 T: kernel_launch(26.550980)
F: 11109700----T: 11112305 	 St: 0 Sz: 4096 	 Sm: 0 	 T: device_sync(1.758947)
F: 11109700----T: 11117940 	 St: 0 Sz: 61440 	 Sm: 0 	 T: device_sync(5.563808)
F: 11120545----T: 11123150 	 St: 0 Sz: 4096 	 Sm: 0 	 T: device_sync(1.758947)
F: 11120545----T: 11128785 	 St: 0 Sz: 61440 	 Sm: 0 	 T: device_sync(5.563808)
F: 11131390----T: 11133995 	 St: 0 Sz: 4096 	 Sm: 0 	 T: device_sync(1.758947)
F: 11131390----T: 11147085 	 St: 0 Sz: 126976 	 Sm: 0 	 T: device_sync(10.597569)
F: 11149690----T: 11152295 	 St: 0 Sz: 4096 	 Sm: 0 	 T: device_sync(1.758947)
F: 11149690----T: 11180413 	 St: 0 Sz: 258048 	 Sm: 0 	 T: device_sync(20.744766)
F: 11183018----T: 11185623 	 St: 0 Sz: 4096 	 Sm: 0 	 T: device_sync(1.758947)
F: 11183018----T: 11243854 	 St: 0 Sz: 520192 	 Sm: 0 	 T: device_sync(41.077652)
F: 11246459----T: 11249064 	 St: 0 Sz: 4096 	 Sm: 0 	 T: device_sync(1.758947)
F: 11246459----T: 11367548 	 St: 0 Sz: 1044480 	 Sm: 0 	 T: device_sync(81.761650)
F: 11370153----T: 11372758 	 St: 0 Sz: 4096 	 Sm: 0 	 T: device_sync(1.758947)
F: 11370153----T: 11378393 	 St: 0 Sz: 61440 	 Sm: 0 	 T: device_sync(5.563808)
F: 11380998----T: 11383603 	 St: 0 Sz: 4096 	 Sm: 0 	 T: device_sync(1.758947)
F: 11380998----T: 11389238 	 St: 0 Sz: 61440 	 Sm: 0 	 T: device_sync(5.563808)
F: 11391843----T: 11394448 	 St: 0 Sz: 4096 	 Sm: 0 	 T: device_sync(1.758947)
F: 11391843----T: 11407538 	 St: 0 Sz: 126976 	 Sm: 0 	 T: device_sync(10.597569)
F: 11410143----T: 11412748 	 St: 0 Sz: 4096 	 Sm: 0 	 T: device_sync(1.758947)
F: 11410143----T: 11440866 	 St: 0 Sz: 258048 	 Sm: 0 	 T: device_sync(20.744766)
F: 11443471----T: 11446076 	 St: 0 Sz: 4096 	 Sm: 0 	 T: device_sync(1.758947)
F: 11443471----T: 11504307 	 St: 0 Sz: 520192 	 Sm: 0 	 T: device_sync(41.077652)
F: 11506912----T: 11509517 	 St: 0 Sz: 4096 	 Sm: 0 	 T: device_sync(1.758947)
F: 11506912----T: 11597873 	 St: 0 Sz: 782336 	 Sm: 0 	 T: device_sync(61.418636)
Tot_prefetch_time: 0(cycle), 0.000000(us)
Tot_kernel_exec_time: 2223700(cycle), 1501.485474(us)
Tot_kernel_exec_time_and_fault_time: 6555625(cycle), 4426.485352(us)
Tot_memcpy_h2d_time: 693867(cycle), 468.512482(us)
Tot_memcpy_d2h_time: 0(cycle), 0.000000(us)
Tot_memcpy_time: 693867(cycle), 468.512482(us)
Tot_devicesync_time: 490778(cycle), 331.382843(us)
Tot_writeback_time: 0(cycle), 0.000000(us)
Tot_rdma_time: 0(cycle), 0.000000(us)
Tot_memcpy_d2h_sync_wb_time: 490778(cycle), 331.382843(us)
GPGPU-Sim: *** exit detected ***
