

        *** GPGPU-Sim Simulator Version 3.2.2  [build gpgpu-sim_git-commit-1c1adf09f9d1bccf70ff97255c2b46b40ff0e800_modified_0] ***


GPGPU-Sim PTX: simulation mode 0 (can change with PTX_SIM_MODE_FUNC environment variable:
               1=functional simulation only, 0=detailed performance simulator)
GPGPU-Sim: Configuration options:

-network_mode                           1 # Interconnection network mode
-inter_config_file   config_fermi_islip.icnt # Interconnection network config file
-gpgpu_ptx_use_cuobjdump                    1 # Use cuobjdump to extract ptx and sass from binaries
-gpgpu_experimental_lib_support                    0 # Try to extract code from cuda libraries [Broken because of unknown cudaGetExportTable]
-gpgpu_ptx_convert_to_ptxplus                    0 # Convert SASS (native ISA) to ptxplus and run ptxplus
-gpgpu_ptx_force_max_capability                   20 # Force maximum compute capability
-gpgpu_ptx_inst_debug_to_file                    0 # Dump executed instructions' debug information to file
-gpgpu_ptx_inst_debug_file       inst_debug.txt # Executed instructions' debug output file
-gpgpu_ptx_inst_debug_thread_uid                    1 # Thread UID for executed instructions' debug output
-gpgpu_simd_model                       1 # 1 = post-dominator
-gpgpu_shader_core_pipeline              2048:32 # shader core pipeline config, i.e., {<nthread>:<warpsize>}
-gpgpu_tex_cache:l1  16:128:24,L:R:m:N:L,F:128:4,128:2 # per-shader L1 texture cache  (READ-ONLY) config  {<nsets>:<bsize>:<assoc>,<rep>:<wr>:<alloc>:<wr_alloc>,<mshr>:<N>:<merge>,<mq>:<rf>}
-gpgpu_const_cache:l1 128:64:2,L:R:f:N:L,A:2:64,4 # per-shader L1 constant memory cache  (READ-ONLY) config  {<nsets>:<bsize>:<assoc>,<rep>:<wr>:<alloc>:<wr_alloc>,<mshr>:<N>:<merge>,<mq>} 
-gpgpu_cache:il1     8:128:4,L:R:f:N:L,A:2:48,4 # shader L1 instruction cache config  {<nsets>:<bsize>:<assoc>,<rep>:<wr>:<alloc>:<wr_alloc>,<mshr>:<N>:<merge>,<mq>} 
-gpgpu_cache:dl1     64:128:6,L:L:m:N:H,A:128:8,8 # per-shader L1 data cache config  {<nsets>:<bsize>:<assoc>,<rep>:<wr>:<alloc>:<wr_alloc>,<mshr>:<N>:<merge>,<mq> | none}
-gpgpu_cache:dl1PrefL1                 none # per-shader L1 data cache config  {<nsets>:<bsize>:<assoc>,<rep>:<wr>:<alloc>:<wr_alloc>,<mshr>:<N>:<merge>,<mq> | none}
-gpgpu_cache:dl1PrefShared                 none # per-shader L1 data cache config  {<nsets>:<bsize>:<assoc>,<rep>:<wr>:<alloc>:<wr_alloc>,<mshr>:<N>:<merge>,<mq> | none}
-gmem_skip_L1D                          1 # global memory access skip L1D cache (implements -Xptxas -dlcm=cg, default=no skip)
-gpgpu_perfect_mem                      0 # enable perfect memory mode (no cache miss)
-n_regfile_gating_group                    4 # group of lanes that should be read/written together)
-gpgpu_clock_gated_reg_file                    0 # enable clock gated reg file for power calculations
-gpgpu_clock_gated_lanes                    0 # enable clock gated lanes for power calculations
-gpgpu_shader_registers                65536 # Number of registers per shader core. Limits number of concurrent CTAs. (default 8192)
-gpgpu_shader_cta                      32 # Maximum number of concurrent CTAs in shader (default 8)
-gpgpu_num_cta_barriers                   16 # Maximum number of named barriers per CTA (default 16)
-gpgpu_n_clusters                      28 # number of processing clusters
-gpgpu_n_cores_per_cluster                    1 # number of simd cores per cluster
-gpgpu_n_cluster_ejection_buffer_size                    8 # number of packets in ejection buffer
-gpgpu_n_ldst_response_buffer_size                    2 # number of response packets in ld/st unit ejection buffer
-gpgpu_shmem_size                   16384 # Size of shared memory per shader core (default 16kB)
-gpgpu_shmem_size                   98304 # Size of shared memory per shader core (default 16kB)
-gpgpu_shmem_size_PrefL1                16384 # Size of shared memory per shader core (default 16kB)
-gpgpu_shmem_size_PrefShared                16384 # Size of shared memory per shader core (default 16kB)
-gpgpu_shmem_num_banks                   32 # Number of banks in the shared memory in each shader core (default 16)
-gpgpu_shmem_limited_broadcast                    0 # Limit shared memory to do one broadcast per cycle (default on)
-gpgpu_shmem_warp_parts                    1 # Number of portions a warp is divided into for shared memory bank conflict check 
-gpgpu_warpdistro_shader                   -1 # Specify which shader core to collect the warp size distribution from
-gpgpu_warp_issue_shader                    0 # Specify which shader core to collect the warp issue distribution from
-gpgpu_local_mem_map                    1 # Mapping from local memory space address to simulated GPU physical address space (default = enabled)
-gpgpu_num_reg_banks                   32 # Number of register banks (default = 8)
-gpgpu_reg_bank_use_warp_id                    0 # Use warp ID in mapping registers to banks (default = off)
-gpgpu_operand_collector_num_units_sp                   20 # number of collector units (default = 4)
-gpgpu_operand_collector_num_units_sfu                    4 # number of collector units (default = 4)
-gpgpu_operand_collector_num_units_mem                    8 # number of collector units (default = 2)
-gpgpu_operand_collector_num_units_gen                    0 # number of collector units (default = 0)
-gpgpu_operand_collector_num_in_ports_sp                    4 # number of collector unit in ports (default = 1)
-gpgpu_operand_collector_num_in_ports_sfu                    1 # number of collector unit in ports (default = 1)
-gpgpu_operand_collector_num_in_ports_mem                    1 # number of collector unit in ports (default = 1)
-gpgpu_operand_collector_num_in_ports_gen                    0 # number of collector unit in ports (default = 0)
-gpgpu_operand_collector_num_out_ports_sp                    4 # number of collector unit in ports (default = 1)
-gpgpu_operand_collector_num_out_ports_sfu                    1 # number of collector unit in ports (default = 1)
-gpgpu_operand_collector_num_out_ports_mem                    1 # number of collector unit in ports (default = 1)
-gpgpu_operand_collector_num_out_ports_gen                    0 # number of collector unit in ports (default = 0)
-gpgpu_coalesce_arch                   13 # Coalescing arch (default = 13, anything else is off for now)
-gpgpu_num_sched_per_core                    2 # Number of warp schedulers per core
-gpgpu_max_insn_issue_per_warp                    2 # Max number of instructions that can be issued per warp in one cycle by scheduler
-gpgpu_simt_core_sim_order                    1 # Select the simulation order of cores in a cluster (0=Fix, 1=Round-Robin)
-gpgpu_pipeline_widths        4,1,1,4,1,1,6 # Pipeline widths ID_OC_SP,ID_OC_SFU,ID_OC_MEM,OC_EX_SP,OC_EX_SFU,OC_EX_MEM,EX_WB
-gpgpu_num_sp_units                     4 # Number of SP units (default=1)
-gpgpu_num_sfu_units                    1 # Number of SF units (default=1)
-gpgpu_num_mem_units                    1 # Number if ldst units (default=1) WARNING: not hooked up to anything
-gpgpu_scheduler                      gto # Scheduler configuration: < lrr | gto | two_level_active > If two_level_active:<num_active_warps>:<inner_prioritization>:<outer_prioritization>For complete list of prioritization values see shader.h enum scheduler_prioritization_typeDefault: gto
-gpgpu_concurrent_kernel_sm                    0 # Support concurrent kernels on a SM (default = disabled)
-tlb_size                            4096 # Number of tlb entries per SM.
-gpgpu_dram_scheduler                    1 # 0 = fifo, 1 = FR-FCFS (defaul)
-gpgpu_dram_partition_queues              8:8:8:8 # i2$:$2d:d2$:$2i
-l2_ideal                               0 # Use a ideal L2 cache that always hit
-gpgpu_cache:dl2     64:128:16,L:B:m:W:L,A:1024:1024,4:0,32 # unified banked L2 data cache config  {<nsets>:<bsize>:<assoc>,<rep>:<wr>:<alloc>:<wr_alloc>,<mshr>:<N>:<merge>,<mq>}
-gpgpu_cache:dl2_texture_only                    0 # L2 cache used for texture only
-gpgpu_n_mem                           11 # number of memory modules (e.g. memory controllers) in gpu
-gpgpu_n_sub_partition_per_mchannel                    2 # number of memory subpartition in each memory module
-gpgpu_n_mem_per_ctrlr                    1 # number of memory chips per memory controller
-gpgpu_memlatency_stat                   14 # track and display latency statistics 0x2 enables MC, 0x4 enables queue logs
-gpgpu_frfcfs_dram_sched_queue_size                   64 # 0 = unlimited (default); # entries per chip
-gpgpu_dram_return_queue_size                  116 # 0 = unlimited (default); # entries per chip
-gpgpu_dram_buswidth                    4 # default = 4 bytes (8 bytes per cycle at DDR)
-gpgpu_dram_burst_length                    8 # Burst length of each DRAM request (default = 4 data bus cycle)
-dram_data_command_freq_ratio                    4 # Frequency ratio between DRAM data bus and command bus (default = 2 times, i.e. DDR)
-gpgpu_dram_timing_opt nbk=16:CCD=2:RRD=6:RCD=12:RAS=28:RP=12:RC=40: CL=12:WL=4:CDLR=5:WR=12:nbkgrp=1:CCDL=0:RTPL=0 # DRAM timing parameters = {nbk:tCCD:tRRD:tRCD:tRAS:tRP:tRC:CL:WL:tCDLR:tWR:nbkgrp:tCCDL:tRTPL}
-rop_latency                          120 # ROP queue latency (default 85)
-dram_latency                         100 # DRAM latency (default 30)
-gpgpu_mem_addr_mapping dramid@8;00000000.00000000.00000000.00000000.0000RRRR.RRRRRRRR.RBBBCCCC.BCCSSSSS # mapping memory address to dram model {dramid@<start bit>;<memory address map>}
-gpgpu_mem_addr_test                    0 # run sweep test to check address mapping for aliased address
-gpgpu_mem_address_mask                    1 # 0 = old addressing mask, 1 = new addressing mask, 2 = new add. mask + flipped bank sel and chip sel bits
-gpuwattch_xml_file  gpuwattch_geforcegtx1080ti.xml # GPUWattch XML file
-power_simulation_enabled                    1 # Turn on power simulator (1=On, 0=Off)
-power_per_cycle_dump                    0 # Dump detailed power output each cycle
-power_trace_enabled                    0 # produce a file for the power trace (1=On, 0=Off)
-power_trace_zlevel                     6 # Compression level of the power trace output log (0=no comp, 9=highest)
-steady_power_levels_enabled                    0 # produce a file for the steady power levels (1=On, 0=Off)
-steady_state_definition                  8:4 # allowed deviation:number of samples
-gpgpu_max_cycle                        0 # terminates gpu simulation early (0 = no limit)
-gpgpu_max_insn                         0 # terminates gpu simulation early (0 = no limit)
-gpgpu_max_cta                          0 # terminates gpu simulation early (0 = no limit)
-gpgpu_runtime_stat                   500 # display runtime statistics such as dram utilization {<freq>:<flag>}
-liveness_message_freq                    1 # Minimum number of seconds between simulation liveness messages (0 = always print)
-gpgpu_flush_l1_cache                    0 # Flush L1 cache at the end of each kernel call
-gpgpu_flush_l2_cache                    0 # Flush L2 cache at the end of each kernel call
-gpgpu_deadlock_detect                    0 # Stop the simulation at deadlock (1=on (default), 0=off)
-gpgpu_ptx_instruction_classification                    0 # if enabled will classify ptx instruction types per kernel (Max 255 kernels now)
-gpgpu_ptx_sim_mode                     0 # Select between Performance (default) or Functional simulation (1)
-gpgpu_clock_domains 1481.0:2962.0:1481.0:2750.0 # Clock Domain Frequencies in MhZ {<Core Clock>:<ICNT Clock>:<L2 Clock>:<DRAM Clock>}
-gpgpu_max_concurrent_kernel                    8 # maximum kernels that can run concurrently on GPU
-gpgpu_cflog_interval                    0 # Interval between each snapshot in control flow logger
-visualizer_enabled                     0 # Turn on visualizer output (1=On, 0=Off)
-visualizer_outputfile                 NULL # Specifies the output log file for visualizer
-visualizer_zlevel                      6 # Compression level of the visualizer output log (0=no comp, 9=highest)
-trace_enabled                          0 # Turn on traces
-trace_components                    none # comma seperated list of traces to enable. Complete list found in trace_streams.tup. Default none
-trace_sampling_core                    0 # The core which is printed using CORE_DPRINTF. Default 0
-trace_sampling_memory_partition                   -1 # The memory partition which is printed using MEMPART_DPRINTF. Default -1 (i.e. all)
-gddr_size                            1GB # Size of GDDR in MB/GB.(GLOBAL_HEAP_START, GLOBAL_HEAP_START + gddr_size) would be used for unmanged memory, (GLOBAL_HEAP_START + gddr_size, GLOBAL_HEAP_START + gddr_size*2) would be used for managed memory. 
-page_table_walk_latency                  100 # Average page table walk latency (in core cycle).
-eviction_policy                        0 # Select page eviction policy
-invalidate_clean                       0 # Should directly invalidate clean pages
-reserve_accessed_page_percent                    0 # Percentage of accessed pages reserved from eviction in hope that they will be accessed in next iteration.
-percentage_of_free_page_buffer                    0 # Percentage of free page buffer to trigger the page eviction.
-page_size                            4KB # GDDR page size, only 4KB/2MB avaliable.
-pcie_bandwidth                  16.0GB/s # PCI-e bandwidth per direction, in GB/s.
-enable_dma                             0 # Enable direct access to CPU memory
-multiply_dma_penalty                    2 # Oversubscription Multiplicative Penalty Factor for Adaptive DMA
-migrate_threshold                      8 # Access counter threshold for migrating the page from cpu to gpu
-sim_prof_enable                        1 # Enable gpgpu-sim profiler
-hardware_prefetch                      0 # Select gpgpu-sim hardware prefetcher
-hwprefetch_oversub                     1 # Select gpgpu-sim hardware prefetcher under over-subscription
-page_fault_latency                 66645 # Average fault latency (in core cycle).
-enable_accurate_simulation                    0 # Enable page fault functional simulation.
-enable_ptx_file_line_stats                    1 # Turn on PTX source line statistic profiling. (1 = On)
-ptx_line_stats_filename gpgpu_inst_stats.txt # Output file for PTX source line statistics.
-gpgpu_kernel_launch_latency               222150 # Kernel launch latency in cycles. Default: 0
-gpgpu_cdp_enabled                      0 # Turn on CDP
-save_embedded_ptx                      0 # saves ptx files embedded in binary as <n>.ptx
-keep                                   0 # keep intermediate files created by GPGPU-Sim when interfacing with external programs
-gpgpu_ptx_save_converted_ptxplus                    0 # Saved converted ptxplus to a file
-ptx_opcode_latency_int         4,13,4,5,145 # Opcode latencies for integers <ADD,MAX,MUL,MAD,DIV>Default 1,1,19,25,145
-ptx_opcode_latency_fp          4,13,4,5,39 # Opcode latencies for single precision floating points <ADD,MAX,MUL,MAD,DIV>Default 1,1,1,1,30
-ptx_opcode_latency_dp         8,19,8,8,330 # Opcode latencies for double precision floating points <ADD,MAX,MUL,MAD,DIV>Default 8,8,8,8,335
-ptx_opcode_initiation_int            1,2,2,2,8 # Opcode initiation intervals for integers <ADD,MAX,MUL,MAD,DIV>Default 1,1,4,4,32
-ptx_opcode_initiation_fp            1,2,1,1,4 # Opcode initiation intervals for single precision floating points <ADD,MAX,MUL,MAD,DIV>Default 1,1,1,1,5
-ptx_opcode_initiation_dp          1,2,1,1,130 # Opcode initiation intervals for double precision floating points <ADD,MAX,MUL,MAD,DIV>Default 8,8,8,8,130
-cdp_latency         7200,8000,100,12000,1600 # CDP API latency <cudaStreamCreateWithFlags, cudaGetParameterBufferV2_init_perWarp, cudaGetParameterBufferV2_perKernel, cudaLaunchDeviceV2_init_perWarp, cudaLaunchDevicV2_perKernel>Default 7200,8000,100,12000,1600
DRAM Timing Options:
nbk                                    16 # number of banks
CCD                                     2 # column to column delay
RRD                                     6 # minimal delay between activation of rows in different banks
RCD                                    12 # row to column delay
RAS                                    28 # time needed to activate row
RP                                     12 # time needed to precharge (deactivate) row
RC                                     40 # row cycle time
CDLR                                    5 # switching from write to read (changes tWTR)
WR                                     12 # last data-in to row precharge
CL                                     12 # CAS latency
WL                                      4 # Write latency
nbkgrp                                  1 # number of bank groups
CCDL                                    0 # column to column delay between accesses to different bank groups
RTPL                                    0 # read to precharge delay between accesses to different bank groups
Total number of memory sub partition = 22
addr_dec_mask[CHIP]  = 0000000000000000 	high:64 low:0
addr_dec_mask[BK]    = 0000000000007080 	high:15 low:7
addr_dec_mask[ROW]   = 000000000fff8000 	high:28 low:15
addr_dec_mask[COL]   = 0000000000000f7f 	high:12 low:0
addr_dec_mask[BURST] = 000000000000001f 	high:5 low:0
sub_partition_id_mask = 0000000000000080
GPGPU-Sim uArch: clock freqs: 1481000000.000000:2962000000.000000:1481000000.000000:2750000000.000000
GPGPU-Sim uArch: clock periods: 0.00000000067521944632:0.00000000033760972316:0.00000000067521944632:0.00000000036363636364
*** Initializing Memory Statistics ***
GPGPU-Sim uArch: interconnect node map (shaderID+MemID to icntID)
GPGPU-Sim uArch: Memory nodes ID start from index: 28
GPGPU-Sim uArch:    0   1   2   3   4   5   6
GPGPU-Sim uArch:    7   8   9  10  11  12  13
GPGPU-Sim uArch:   14  15  16  17  18  19  20
GPGPU-Sim uArch:   21  22  23  24  25  26  27
GPGPU-Sim uArch:   28  29  30  31  32  33  34
GPGPU-Sim uArch:   35  36  37  38  39  40  41
GPGPU-Sim uArch:   42  43  44  45  46  47  48
GPGPU-Sim uArch:   49
GPGPU-Sim uArch: interconnect node reverse map (icntID to shaderID+MemID)
GPGPU-Sim uArch: Memory nodes start from ID: 28
GPGPU-Sim uArch:    0   1   2   3   4   5   6
GPGPU-Sim uArch:    7   8   9  10  11  12  13
GPGPU-Sim uArch:   14  15  16  17  18  19  20
GPGPU-Sim uArch:   21  22  23  24  25  26  27
GPGPU-Sim uArch:   28  29  30  31  32  33  34
GPGPU-Sim uArch:   35  36  37  38  39  40  41
GPGPU-Sim uArch:   42  43  44  45  46  47  48
GPGPU-Sim uArch:   49
3c65a236e58172774ce408113d8cb5e1  /root/gpgpu-sim_UVMSmart/benchmarks/Managed/backprop/backprop
GPGPU-Sim uArch: performance model initialization complete.
GPGPU-Sim PTX: __cudaRegisterFatBinary, fat_cubin_handle = 1, filename=default
self exe links to: /root/gpgpu-sim_UVMSmart/benchmarks/Managed/backprop/backprop
Running md5sum using "md5sum /root/gpgpu-sim_UVMSmart/benchmarks/Managed/backprop/backprop "
Parsing file _cuobjdump_complete_output_RLgLJb
######### cuobjdump parser ########
## Adding new section ELF
Adding arch: sm_20
Adding identifier: default
## Adding new section ELF
Adding arch: sm_20
Adding identifier: default
## Adding new section PTX
Adding ptx filename: _cuobjdump_1.ptx
Adding arch: sm_20
Adding identifier: default
Done parsing!!!
GPGPU-Sim PTX: __cudaRegisterFunction _Z24bpnn_adjust_weights_cudaPfiS_iS_S_ : hostFun 0x0x402d51, fat_cubin_handle = 1
GPGPU-Sim PTX: allocating shared region for "_Z22bpnn_layerforward_CUDAPfS_S_S_ii$__cuda_local_var_17900_34_non_const_input_node" from 0x0 to 0x40 (shared memory space)
GPGPU-Sim PTX: allocating shared region for "_Z22bpnn_layerforward_CUDAPfS_S_S_ii$__cuda_local_var_17901_34_non_const_weight_matrix" from 0x80 to 0x480 (shared memory space)
GPGPU-Sim PTX: instruction assembly for function '_Z22bpnn_layerforward_CUDAPfS_S_S_ii'...   done.
GPGPU-Sim PTX: finding reconvergence points for '_Z22bpnn_layerforward_CUDAPfS_S_S_ii'...
GPGPU-Sim PTX: Finding dominators for '_Z22bpnn_layerforward_CUDAPfS_S_S_ii'...
GPGPU-Sim PTX: Finding immediate dominators for '_Z22bpnn_layerforward_CUDAPfS_S_S_ii'...
GPGPU-Sim PTX: Finding postdominators for '_Z22bpnn_layerforward_CUDAPfS_S_S_ii'...
GPGPU-Sim PTX: Finding immediate postdominators for '_Z22bpnn_layerforward_CUDAPfS_S_S_ii'...
GPGPU-Sim PTX: pre-decoding instructions for '_Z22bpnn_layerforward_CUDAPfS_S_S_ii'...
GPGPU-Sim PTX: reconvergence points for _Z22bpnn_layerforward_CUDAPfS_S_S_ii...
GPGPU-Sim PTX:  1 (potential) branch divergence @  PC=0x068 (_1.ptx:47) @%p2 bra BB0_2;
GPGPU-Sim PTX:    immediate post dominator      @  PC=0x0a0 (_1.ptx:57) cvta.to.global.u64 %rd3, %rd8;
GPGPU-Sim PTX:  2 (potential) branch divergence @  PC=0x168 (_1.ptx:82) @%p3 bra BB0_7;
GPGPU-Sim PTX:    immediate post dominator      @  PC=0x250 (_1.ptx:119) setp.eq.s32%p1, %r3, 0;
GPGPU-Sim PTX:  3 (potential) branch divergence @  PC=0x1c8 (_1.ptx:97) @%p4 bra BB0_6;
GPGPU-Sim PTX:    immediate post dominator      @  PC=0x228 (_1.ptx:112) bar.sync 0;
GPGPU-Sim PTX:  4 (potential) branch divergence @  PC=0x248 (_1.ptx:116) @%p5 bra BB0_4;
GPGPU-Sim PTX:    immediate post dominator      @  PC=0x250 (_1.ptx:119) setp.eq.s32%p1, %r3, 0;
GPGPU-Sim PTX:  5 (potential) branch divergence @  PC=0x270 (_1.ptx:123) @!%p1 bra BB0_9;
GPGPU-Sim PTX:    immediate post dominator      @  PC=0x2c8 (_1.ptx:138) ret;
GPGPU-Sim PTX:  6 (potential) branch divergence @  PC=0x278 (_1.ptx:124) bra.uni BB0_8;
GPGPU-Sim PTX:    immediate post dominator      @  PC=0x280 (_1.ptx:127) cvt.u32.u64%r20, %rd1;
GPGPU-Sim PTX: ... end of reconvergence points for _Z22bpnn_layerforward_CUDAPfS_S_S_ii
GPGPU-Sim PTX: ... done pre-decoding instructions for '_Z22bpnn_layerforward_CUDAPfS_S_S_ii'.
GPGPU-Sim PTX: instruction assembly for function '_Z24bpnn_adjust_weights_cudaPfiS_iS_S_'...   done.
GPGPU-Sim PTX: finding reconvergence points for '_Z24bpnn_adjust_weights_cudaPfiS_iS_S_'...
GPGPU-Sim PTX: Finding dominators for '_Z24bpnn_adjust_weights_cudaPfiS_iS_S_'...
GPGPU-Sim PTX: Finding immediate dominators for '_Z24bpnn_adjust_weights_cudaPfiS_iS_S_'...
GPGPU-Sim PTX: Finding postdominators for '_Z24bpnn_adjust_weights_cudaPfiS_iS_S_'...
GPGPU-Sim PTX: Finding immediate postdominators for '_Z24bpnn_adjust_weights_cudaPfiS_iS_S_'...
GPGPU-Sim PTX: pre-decoding instructions for '_Z24bpnn_adjust_weights_cudaPfiS_iS_S_'...
GPGPU-Sim PTX: reconvergence points for _Z24bpnn_adjust_weights_cudaPfiS_iS_S_...
GPGPU-Sim PTX:  1 (potential) branch divergence @  PC=0x470 (_1.ptx:210) @%p1 bra BB1_2;
GPGPU-Sim PTX:    immediate post dominator      @  PC=0x530 (_1.ptx:237) ret;
GPGPU-Sim PTX: ... end of reconvergence points for _Z24bpnn_adjust_weights_cudaPfiS_iS_S_
GPGPU-Sim PTX: ... done pre-decoding instructions for '_Z24bpnn_adjust_weights_cudaPfiS_iS_S_'.
GPGPU-Sim PTX: finished parsing EMBEDDED .ptx file _1.ptx
Adding _cuobjdump_1.ptx with cubin handle 1
GPGPU-Sim PTX: extracting embedded .ptx to temporary file "_ptx_NJMHDQ"
Running: cat _ptx_NJMHDQ | sed 's/.version 1.5/.version 1.4/' | sed 's/, texmode_independent//' | sed 's/\(\.extern \.const\[1\] .b8 \w\+\)\[\]/\1\[1\]/' | sed 's/const\[.\]/const\[0\]/g' > _ptx2_Zy6Exv
GPGPU-Sim PTX: generating ptxinfo using "$CUDA_INSTALL_PATH/bin/ptxas --gpu-name=sm_20 -v _ptx2_Zy6Exv --output-file  /dev/null 2> _ptx_NJMHDQinfo"
GPGPU-Sim PTX: Kernel '_Z24bpnn_adjust_weights_cudaPfiS_iS_S_' : regs=22, lmem=0, smem=0, cmem=80
GPGPU-Sim PTX: Kernel '_Z22bpnn_layerforward_CUDAPfS_S_S_ii' : regs=11, lmem=0, smem=1088, cmem=72
GPGPU-Sim PTX: removing ptxinfo using "rm -f _ptx_NJMHDQ _ptx2_Zy6Exv _ptx_NJMHDQinfo"
GPGPU-Sim PTX: loading globals with explicit initializers... 
GPGPU-Sim PTX: finished loading globals (0 bytes total).
GPGPU-Sim PTX: loading constants with explicit initializers...  done.
GPGPU-Sim PTX: __cudaRegisterFunction _Z22bpnn_layerforward_CUDAPfS_S_S_ii : hostFun 0x0x402c00, fat_cubin_handle = 1
Random number generator seed: 7
Input layer size : 131056
Starting training kernel
Performing GPU computation

GPGPU-Sim PTX: cudaLaunch for 0x0x402c00 (mode=performance simulation) on stream 0
GPGPU-Sim PTX: pushing kernel '_Z22bpnn_layerforward_CUDAPfS_S_S_ii' to stream 0, gridDim= (1,8191,1) blockDim = (16,16,1) 
GPGPU-Sim uArch: Shader 1 bind to kernel 1 '_Z22bpnn_layerforward_CUDAPfS_S_S_ii'
GPGPU-Sim uArch: CTA/core = 8, limited by: threads
GPGPU-Sim uArch: Shader 2 bind to kernel 1 '_Z22bpnn_layerforward_CUDAPfS_S_S_ii'
GPGPU-Sim uArch: Shader 3 bind to kernel 1 '_Z22bpnn_layerforward_CUDAPfS_S_S_ii'
GPGPU-Sim uArch: Shader 4 bind to kernel 1 '_Z22bpnn_layerforward_CUDAPfS_S_S_ii'
GPGPU-Sim uArch: Shader 5 bind to kernel 1 '_Z22bpnn_layerforward_CUDAPfS_S_S_ii'
GPGPU-Sim uArch: Shader 6 bind to kernel 1 '_Z22bpnn_layerforward_CUDAPfS_S_S_ii'
GPGPU-Sim uArch: Shader 7 bind to kernel 1 '_Z22bpnn_layerforward_CUDAPfS_S_S_ii'
GPGPU-Sim uArch: Shader 8 bind to kernel 1 '_Z22bpnn_layerforward_CUDAPfS_S_S_ii'
GPGPU-Sim uArch: Shader 9 bind to kernel 1 '_Z22bpnn_layerforward_CUDAPfS_S_S_ii'
GPGPU-Sim uArch: Shader 10 bind to kernel 1 '_Z22bpnn_layerforward_CUDAPfS_S_S_ii'
GPGPU-Sim uArch: Shader 11 bind to kernel 1 '_Z22bpnn_layerforward_CUDAPfS_S_S_ii'
GPGPU-Sim uArch: Shader 12 bind to kernel 1 '_Z22bpnn_layerforward_CUDAPfS_S_S_ii'
GPGPU-Sim uArch: Shader 13 bind to kernel 1 '_Z22bpnn_layerforward_CUDAPfS_S_S_ii'
GPGPU-Sim uArch: Shader 14 bind to kernel 1 '_Z22bpnn_layerforward_CUDAPfS_S_S_ii'
GPGPU-Sim uArch: Shader 15 bind to kernel 1 '_Z22bpnn_layerforward_CUDAPfS_S_S_ii'
GPGPU-Sim uArch: Shader 16 bind to kernel 1 '_Z22bpnn_layerforward_CUDAPfS_S_S_ii'
GPGPU-Sim uArch: Shader 17 bind to kernel 1 '_Z22bpnn_layerforward_CUDAPfS_S_S_ii'
GPGPU-Sim uArch: Shader 18 bind to kernel 1 '_Z22bpnn_layerforward_CUDAPfS_S_S_ii'
GPGPU-Sim uArch: Shader 19 bind to kernel 1 '_Z22bpnn_layerforward_CUDAPfS_S_S_ii'
GPGPU-Sim uArch: Shader 20 bind to kernel 1 '_Z22bpnn_layerforward_CUDAPfS_S_S_ii'
GPGPU-Sim uArch: Shader 21 bind to kernel 1 '_Z22bpnn_layerforward_CUDAPfS_S_S_ii'
GPGPU-Sim uArch: Shader 22 bind to kernel 1 '_Z22bpnn_layerforward_CUDAPfS_S_S_ii'
GPGPU-Sim uArch: Shader 23 bind to kernel 1 '_Z22bpnn_layerforward_CUDAPfS_S_S_ii'
GPGPU-Sim uArch: Shader 24 bind to kernel 1 '_Z22bpnn_layerforward_CUDAPfS_S_S_ii'
GPGPU-Sim uArch: Shader 25 bind to kernel 1 '_Z22bpnn_layerforward_CUDAPfS_S_S_ii'
GPGPU-Sim uArch: Shader 26 bind to kernel 1 '_Z22bpnn_layerforward_CUDAPfS_S_S_ii'
GPGPU-Sim uArch: Shader 27 bind to kernel 1 '_Z22bpnn_layerforward_CUDAPfS_S_S_ii'
GPGPU-Sim uArch: Shader 0 bind to kernel 1 '_Z22bpnn_layerforward_CUDAPfS_S_S_ii'
GPGPU-Sim uArch: Shader 22 bind to kernel 1 '_Z22bpnn_layerforward_CUDAPfS_S_S_ii'
GPGPU-Sim uArch: Shader 17 bind to kernel 1 '_Z22bpnn_layerforward_CUDAPfS_S_S_ii'
GPGPU-Sim uArch: Shader 20 bind to kernel 1 '_Z22bpnn_layerforward_CUDAPfS_S_S_ii'
GPGPU-Sim uArch: Shader 21 bind to kernel 1 '_Z22bpnn_layerforward_CUDAPfS_S_S_ii'
GPGPU-Sim uArch: Shader 23 bind to kernel 1 '_Z22bpnn_layerforward_CUDAPfS_S_S_ii'
GPGPU-Sim uArch: Shader 25 bind to kernel 1 '_Z22bpnn_layerforward_CUDAPfS_S_S_ii'
GPGPU-Sim uArch: Shader 26 bind to kernel 1 '_Z22bpnn_layerforward_CUDAPfS_S_S_ii'
GPGPU-Sim uArch: Shader 27 bind to kernel 1 '_Z22bpnn_layerforward_CUDAPfS_S_S_ii'
GPGPU-Sim uArch: Shader 19 bind to kernel 1 '_Z22bpnn_layerforward_CUDAPfS_S_S_ii'
GPGPU-Sim uArch: Shader 20 bind to kernel 1 '_Z22bpnn_layerforward_CUDAPfS_S_S_ii'
GPGPU-Sim uArch: Shader 21 bind to kernel 1 '_Z22bpnn_layerforward_CUDAPfS_S_S_ii'
GPGPU-Sim uArch: Shader 23 bind to kernel 1 '_Z22bpnn_layerforward_CUDAPfS_S_S_ii'
GPGPU-Sim uArch: Shader 26 bind to kernel 1 '_Z22bpnn_layerforward_CUDAPfS_S_S_ii'
GPGPU-Sim uArch: Shader 27 bind to kernel 1 '_Z22bpnn_layerforward_CUDAPfS_S_S_ii'
GPGPU-Sim uArch: Shader 2 bind to kernel 1 '_Z22bpnn_layerforward_CUDAPfS_S_S_ii'
GPGPU-Sim uArch: Shader 3 bind to kernel 1 '_Z22bpnn_layerforward_CUDAPfS_S_S_ii'
GPGPU-Sim uArch: Shader 22 bind to kernel 1 '_Z22bpnn_layerforward_CUDAPfS_S_S_ii'
GPGPU-Sim uArch: Shader 26 bind to kernel 1 '_Z22bpnn_layerforward_CUDAPfS_S_S_ii'
GPGPU-Sim uArch: Shader 1 bind to kernel 1 '_Z22bpnn_layerforward_CUDAPfS_S_S_ii'
GPGPU-Sim uArch: Shader 2 bind to kernel 1 '_Z22bpnn_layerforward_CUDAPfS_S_S_ii'
GPGPU-Sim uArch: Shader 3 bind to kernel 1 '_Z22bpnn_layerforward_CUDAPfS_S_S_ii'
GPGPU-Sim uArch: Shader 4 bind to kernel 1 '_Z22bpnn_layerforward_CUDAPfS_S_S_ii'
GPGPU-Sim uArch: Shader 5 bind to kernel 1 '_Z22bpnn_layerforward_CUDAPfS_S_S_ii'
GPGPU-Sim uArch: Shader 6 bind to kernel 1 '_Z22bpnn_layerforward_CUDAPfS_S_S_ii'
GPGPU-Sim uArch: Shader 7 bind to kernel 1 '_Z22bpnn_layerforward_CUDAPfS_S_S_ii'
GPGPU-Sim uArch: Shader 8 bind to kernel 1 '_Z22bpnn_layerforward_CUDAPfS_S_S_ii'
GPGPU-Sim uArch: Shader 9 bind to kernel 1 '_Z22bpnn_layerforward_CUDAPfS_S_S_ii'
GPGPU-Sim uArch: Shader 10 bind to kernel 1 '_Z22bpnn_layerforward_CUDAPfS_S_S_ii'
GPGPU-Sim uArch: Shader 11 bind to kernel 1 '_Z22bpnn_layerforward_CUDAPfS_S_S_ii'
GPGPU-Sim uArch: Shader 14 bind to kernel 1 '_Z22bpnn_layerforward_CUDAPfS_S_S_ii'
GPGPU-Sim uArch: Shader 18 bind to kernel 1 '_Z22bpnn_layerforward_CUDAPfS_S_S_ii'
GPGPU-Sim uArch: Shader 8 bind to kernel 1 '_Z22bpnn_layerforward_CUDAPfS_S_S_ii'
GPGPU-Sim uArch: Shader 9 bind to kernel 1 '_Z22bpnn_layerforward_CUDAPfS_S_S_ii'
GPGPU-Sim uArch: Shader 10 bind to kernel 1 '_Z22bpnn_layerforward_CUDAPfS_S_S_ii'
GPGPU-Sim uArch: Shader 11 bind to kernel 1 '_Z22bpnn_layerforward_CUDAPfS_S_S_ii'
GPGPU-Sim uArch: Shader 13 bind to kernel 1 '_Z22bpnn_layerforward_CUDAPfS_S_S_ii'
GPGPU-Sim uArch: Shader 15 bind to kernel 1 '_Z22bpnn_layerforward_CUDAPfS_S_S_ii'
GPGPU-Sim uArch: Shader 20 bind to kernel 1 '_Z22bpnn_layerforward_CUDAPfS_S_S_ii'
GPGPU-Sim uArch: Shader 21 bind to kernel 1 '_Z22bpnn_layerforward_CUDAPfS_S_S_ii'
GPGPU-Sim uArch: Shader 22 bind to kernel 1 '_Z22bpnn_layerforward_CUDAPfS_S_S_ii'
GPGPU-Sim uArch: Shader 23 bind to kernel 1 '_Z22bpnn_layerforward_CUDAPfS_S_S_ii'
GPGPU-Sim uArch: Shader 24 bind to kernel 1 '_Z22bpnn_layerforward_CUDAPfS_S_S_ii'
GPGPU-Sim uArch: Shader 25 bind to kernel 1 '_Z22bpnn_layerforward_CUDAPfS_S_S_ii'
GPGPU-Sim uArch: Shader 26 bind to kernel 1 '_Z22bpnn_layerforward_CUDAPfS_S_S_ii'
GPGPU-Sim uArch: Shader 27 bind to kernel 1 '_Z22bpnn_layerforward_CUDAPfS_S_S_ii'
GPGPU-Sim uArch: Shader 0 bind to kernel 1 '_Z22bpnn_layerforward_CUDAPfS_S_S_ii'
GPGPU-Sim uArch: Shader 1 bind to kernel 1 '_Z22bpnn_layerforward_CUDAPfS_S_S_ii'
GPGPU-Sim uArch: Shader 2 bind to kernel 1 '_Z22bpnn_layerforward_CUDAPfS_S_S_ii'
GPGPU-Sim uArch: Shader 3 bind to kernel 1 '_Z22bpnn_layerforward_CUDAPfS_S_S_ii'
GPGPU-Sim uArch: Shader 4 bind to kernel 1 '_Z22bpnn_layerforward_CUDAPfS_S_S_ii'
GPGPU-Sim uArch: Shader 8 bind to kernel 1 '_Z22bpnn_layerforward_CUDAPfS_S_S_ii'
GPGPU-Sim uArch: Shader 9 bind to kernel 1 '_Z22bpnn_layerforward_CUDAPfS_S_S_ii'
GPGPU-Sim uArch: Shader 10 bind to kernel 1 '_Z22bpnn_layerforward_CUDAPfS_S_S_ii'
GPGPU-Sim uArch: Shader 11 bind to kernel 1 '_Z22bpnn_layerforward_CUDAPfS_S_S_ii'
GPGPU-Sim uArch: Shader 12 bind to kernel 1 '_Z22bpnn_layerforward_CUDAPfS_S_S_ii'
GPGPU-Sim uArch: Shader 13 bind to kernel 1 '_Z22bpnn_layerforward_CUDAPfS_S_S_ii'
GPGPU-Sim uArch: Shader 14 bind to kernel 1 '_Z22bpnn_layerforward_CUDAPfS_S_S_ii'
GPGPU-Sim uArch: Shader 15 bind to kernel 1 '_Z22bpnn_layerforward_CUDAPfS_S_S_ii'
GPGPU-Sim uArch: Shader 19 bind to kernel 1 '_Z22bpnn_layerforward_CUDAPfS_S_S_ii'
GPGPU-Sim uArch: Shader 20 bind to kernel 1 '_Z22bpnn_layerforward_CUDAPfS_S_S_ii'
GPGPU-Sim uArch: Shader 21 bind to kernel 1 '_Z22bpnn_layerforward_CUDAPfS_S_S_ii'
GPGPU-Sim uArch: Shader 24 bind to kernel 1 '_Z22bpnn_layerforward_CUDAPfS_S_S_ii'
GPGPU-Sim uArch: Shader 25 bind to kernel 1 '_Z22bpnn_layerforward_CUDAPfS_S_S_ii'
GPGPU-Sim uArch: Shader 0 bind to kernel 1 '_Z22bpnn_layerforward_CUDAPfS_S_S_ii'
GPGPU-Sim uArch: Shader 16 bind to kernel 1 '_Z22bpnn_layerforward_CUDAPfS_S_S_ii'
GPGPU-Sim uArch: Shader 19 bind to kernel 1 '_Z22bpnn_layerforward_CUDAPfS_S_S_ii'
GPGPU-Sim uArch: Shader 25 bind to kernel 1 '_Z22bpnn_layerforward_CUDAPfS_S_S_ii'
GPGPU-Sim uArch: Shader 0 bind to kernel 1 '_Z22bpnn_layerforward_CUDAPfS_S_S_ii'
GPGPU-Sim uArch: Shader 4 bind to kernel 1 '_Z22bpnn_layerforward_CUDAPfS_S_S_ii'
GPGPU-Sim uArch: Shader 5 bind to kernel 1 '_Z22bpnn_layerforward_CUDAPfS_S_S_ii'
GPGPU-Sim uArch: Shader 6 bind to kernel 1 '_Z22bpnn_layerforward_CUDAPfS_S_S_ii'
GPGPU-Sim uArch: Shader 7 bind to kernel 1 '_Z22bpnn_layerforward_CUDAPfS_S_S_ii'
GPGPU-Sim uArch: Shader 8 bind to kernel 1 '_Z22bpnn_layerforward_CUDAPfS_S_S_ii'
GPGPU-Sim uArch: Shader 9 bind to kernel 1 '_Z22bpnn_layerforward_CUDAPfS_S_S_ii'
GPGPU-Sim uArch: Shader 10 bind to kernel 1 '_Z22bpnn_layerforward_CUDAPfS_S_S_ii'
GPGPU-Sim uArch: Shader 11 bind to kernel 1 '_Z22bpnn_layerforward_CUDAPfS_S_S_ii'
GPGPU-Sim uArch: Shader 12 bind to kernel 1 '_Z22bpnn_layerforward_CUDAPfS_S_S_ii'
GPGPU-Sim uArch: Shader 13 bind to kernel 1 '_Z22bpnn_layerforward_CUDAPfS_S_S_ii'
GPGPU-Sim uArch: Shader 14 bind to kernel 1 '_Z22bpnn_layerforward_CUDAPfS_S_S_ii'
GPGPU-Sim uArch: Shader 13 bind to kernel 1 '_Z22bpnn_layerforward_CUDAPfS_S_S_ii'
GPGPU-Sim uArch: Shader 14 bind to kernel 1 '_Z22bpnn_layerforward_CUDAPfS_S_S_ii'
GPGPU-Sim uArch: Shader 15 bind to kernel 1 '_Z22bpnn_layerforward_CUDAPfS_S_S_ii'
GPGPU-Sim uArch: Shader 16 bind to kernel 1 '_Z22bpnn_layerforward_CUDAPfS_S_S_ii'
GPGPU-Sim uArch: Shader 17 bind to kernel 1 '_Z22bpnn_layerforward_CUDAPfS_S_S_ii'
GPGPU-Sim uArch: Shader 18 bind to kernel 1 '_Z22bpnn_layerforward_CUDAPfS_S_S_ii'
GPGPU-Sim uArch: Shader 19 bind to kernel 1 '_Z22bpnn_layerforward_CUDAPfS_S_S_ii'
GPGPU-Sim uArch: Shader 20 bind to kernel 1 '_Z22bpnn_layerforward_CUDAPfS_S_S_ii'
GPGPU-Sim uArch: Shader 21 bind to kernel 1 '_Z22bpnn_layerforward_CUDAPfS_S_S_ii'
GPGPU-Sim uArch: Shader 22 bind to kernel 1 '_Z22bpnn_layerforward_CUDAPfS_S_S_ii'
GPGPU-Sim uArch: Shader 23 bind to kernel 1 '_Z22bpnn_layerforward_CUDAPfS_S_S_ii'
GPGPU-Sim uArch: Shader 24 bind to kernel 1 '_Z22bpnn_layerforward_CUDAPfS_S_S_ii'
GPGPU-Sim uArch: Shader 25 bind to kernel 1 '_Z22bpnn_layerforward_CUDAPfS_S_S_ii'
GPGPU-Sim uArch: Shader 26 bind to kernel 1 '_Z22bpnn_layerforward_CUDAPfS_S_S_ii'
GPGPU-Sim uArch: Shader 27 bind to kernel 1 '_Z22bpnn_layerforward_CUDAPfS_S_S_ii'
GPGPU-Sim uArch: Shader 22 bind to kernel 1 '_Z22bpnn_layerforward_CUDAPfS_S_S_ii'
GPGPU-Sim uArch: Shader 23 bind to kernel 1 '_Z22bpnn_layerforward_CUDAPfS_S_S_ii'
GPGPU-Sim uArch: Shader 26 bind to kernel 1 '_Z22bpnn_layerforward_CUDAPfS_S_S_ii'
GPGPU-Sim uArch: Shader 27 bind to kernel 1 '_Z22bpnn_layerforward_CUDAPfS_S_S_ii'
GPGPU-Sim uArch: Shader 9 bind to kernel 1 '_Z22bpnn_layerforward_CUDAPfS_S_S_ii'
GPGPU-Sim uArch: Shader 10 bind to kernel 1 '_Z22bpnn_layerforward_CUDAPfS_S_S_ii'
GPGPU-Sim uArch: Shader 11 bind to kernel 1 '_Z22bpnn_layerforward_CUDAPfS_S_S_ii'
GPGPU-Sim uArch: Shader 12 bind to kernel 1 '_Z22bpnn_layerforward_CUDAPfS_S_S_ii'
GPGPU-Sim uArch: Shader 13 bind to kernel 1 '_Z22bpnn_layerforward_CUDAPfS_S_S_ii'
GPGPU-Sim uArch: Shader 14 bind to kernel 1 '_Z22bpnn_layerforward_CUDAPfS_S_S_ii'
GPGPU-Sim uArch: Shader 15 bind to kernel 1 '_Z22bpnn_layerforward_CUDAPfS_S_S_ii'
GPGPU-Sim uArch: Shader 16 bind to kernel 1 '_Z22bpnn_layerforward_CUDAPfS_S_S_ii'
GPGPU-Sim uArch: Shader 17 bind to kernel 1 '_Z22bpnn_layerforward_CUDAPfS_S_S_ii'
GPGPU-Sim uArch: Shader 18 bind to kernel 1 '_Z22bpnn_layerforward_CUDAPfS_S_S_ii'
GPGPU-Sim uArch: Shader 19 bind to kernel 1 '_Z22bpnn_layerforward_CUDAPfS_S_S_ii'
GPGPU-Sim uArch: Shader 21 bind to kernel 1 '_Z22bpnn_layerforward_CUDAPfS_S_S_ii'
GPGPU-Sim uArch: Shader 22 bind to kernel 1 '_Z22bpnn_layerforward_CUDAPfS_S_S_ii'
GPGPU-Sim uArch: Shader 23 bind to kernel 1 '_Z22bpnn_layerforward_CUDAPfS_S_S_ii'
GPGPU-Sim uArch: Shader 24 bind to kernel 1 '_Z22bpnn_layerforward_CUDAPfS_S_S_ii'
GPGPU-Sim uArch: Shader 25 bind to kernel 1 '_Z22bpnn_layerforward_CUDAPfS_S_S_ii'
GPGPU-Sim uArch: Shader 26 bind to kernel 1 '_Z22bpnn_layerforward_CUDAPfS_S_S_ii'
GPGPU-Sim uArch: Shader 27 bind to kernel 1 '_Z22bpnn_layerforward_CUDAPfS_S_S_ii'
GPGPU-Sim uArch: Shader 0 bind to kernel 1 '_Z22bpnn_layerforward_CUDAPfS_S_S_ii'
GPGPU-Sim uArch: Shader 1 bind to kernel 1 '_Z22bpnn_layerforward_CUDAPfS_S_S_ii'
GPGPU-Sim uArch: Shader 2 bind to kernel 1 '_Z22bpnn_layerforward_CUDAPfS_S_S_ii'
GPGPU-Sim uArch: Shader 3 bind to kernel 1 '_Z22bpnn_layerforward_CUDAPfS_S_S_ii'
GPGPU-Sim uArch: Shader 4 bind to kernel 1 '_Z22bpnn_layerforward_CUDAPfS_S_S_ii'
GPGPU-Sim uArch: Shader 5 bind to kernel 1 '_Z22bpnn_layerforward_CUDAPfS_S_S_ii'
GPGPU-Sim uArch: Shader 7 bind to kernel 1 '_Z22bpnn_layerforward_CUDAPfS_S_S_ii'
GPGPU-Sim uArch: Shader 9 bind to kernel 1 '_Z22bpnn_layerforward_CUDAPfS_S_S_ii'
GPGPU-Sim uArch: Shader 18 bind to kernel 1 '_Z22bpnn_layerforward_CUDAPfS_S_S_ii'
GPGPU-Sim uArch: Shader 19 bind to kernel 1 '_Z22bpnn_layerforward_CUDAPfS_S_S_ii'
GPGPU-Sim uArch: Shader 20 bind to kernel 1 '_Z22bpnn_layerforward_CUDAPfS_S_S_ii'
GPGPU-Sim uArch: Shader 21 bind to kernel 1 '_Z22bpnn_layerforward_CUDAPfS_S_S_ii'
GPGPU-Sim uArch: Shader 22 bind to kernel 1 '_Z22bpnn_layerforward_CUDAPfS_S_S_ii'
GPGPU-Sim uArch: Shader 23 bind to kernel 1 '_Z22bpnn_layerforward_CUDAPfS_S_S_ii'
GPGPU-Sim uArch: Shader 24 bind to kernel 1 '_Z22bpnn_layerforward_CUDAPfS_S_S_ii'
GPGPU-Sim uArch: Shader 25 bind to kernel 1 '_Z22bpnn_layerforward_CUDAPfS_S_S_ii'
GPGPU-Sim uArch: Shader 26 bind to kernel 1 '_Z22bpnn_layerforward_CUDAPfS_S_S_ii'
GPGPU-Sim uArch: Shader 27 bind to kernel 1 '_Z22bpnn_layerforward_CUDAPfS_S_S_ii'
GPGPU-Sim uArch: Shader 0 bind to kernel 1 '_Z22bpnn_layerforward_CUDAPfS_S_S_ii'
GPGPU-Sim uArch: Shader 1 bind to kernel 1 '_Z22bpnn_layerforward_CUDAPfS_S_S_ii'
GPGPU-Sim uArch: Shader 8 bind to kernel 1 '_Z22bpnn_layerforward_CUDAPfS_S_S_ii'
GPGPU-Sim uArch: Shader 9 bind to kernel 1 '_Z22bpnn_layerforward_CUDAPfS_S_S_ii'
GPGPU-Sim uArch: Shader 10 bind to kernel 1 '_Z22bpnn_layerforward_CUDAPfS_S_S_ii'
GPGPU-Sim uArch: Shader 8 bind to kernel 1 '_Z22bpnn_layerforward_CUDAPfS_S_S_ii'
GPGPU-Sim uArch: Shader 15 bind to kernel 1 '_Z22bpnn_layerforward_CUDAPfS_S_S_ii'
GPGPU-Sim uArch: Shader 16 bind to kernel 1 '_Z22bpnn_layerforward_CUDAPfS_S_S_ii'
GPGPU-Sim uArch: Shader 17 bind to kernel 1 '_Z22bpnn_layerforward_CUDAPfS_S_S_ii'
GPGPU-Sim uArch: Shader 18 bind to kernel 1 '_Z22bpnn_layerforward_CUDAPfS_S_S_ii'
GPGPU-Sim uArch: Shader 19 bind to kernel 1 '_Z22bpnn_layerforward_CUDAPfS_S_S_ii'
GPGPU-Sim uArch: Shader 20 bind to kernel 1 '_Z22bpnn_layerforward_CUDAPfS_S_S_ii'
GPGPU-Sim uArch: Shader 21 bind to kernel 1 '_Z22bpnn_layerforward_CUDAPfS_S_S_ii'
GPGPU-Sim uArch: Shader 22 bind to kernel 1 '_Z22bpnn_layerforward_CUDAPfS_S_S_ii'
GPGPU-Sim uArch: Shader 23 bind to kernel 1 '_Z22bpnn_layerforward_CUDAPfS_S_S_ii'
GPGPU-Sim uArch: Shader 24 bind to kernel 1 '_Z22bpnn_layerforward_CUDAPfS_S_S_ii'
GPGPU-Sim uArch: Shader 25 bind to kernel 1 '_Z22bpnn_layerforward_CUDAPfS_S_S_ii'
GPGPU-Sim uArch: Shader 26 bind to kernel 1 '_Z22bpnn_layerforward_CUDAPfS_S_S_ii'
GPGPU-Sim uArch: Shader 1 bind to kernel 1 '_Z22bpnn_layerforward_CUDAPfS_S_S_ii'
GPGPU-Sim uArch: Shader 2 bind to kernel 1 '_Z22bpnn_layerforward_CUDAPfS_S_S_ii'
GPGPU-Sim uArch: Shader 0 bind to kernel 1 '_Z22bpnn_layerforward_CUDAPfS_S_S_ii'
GPGPU-Sim uArch: Shader 1 bind to kernel 1 '_Z22bpnn_layerforward_CUDAPfS_S_S_ii'
GPGPU-Sim uArch: Shader 4 bind to kernel 1 '_Z22bpnn_layerforward_CUDAPfS_S_S_ii'
GPGPU-Sim uArch: Shader 5 bind to kernel 1 '_Z22bpnn_layerforward_CUDAPfS_S_S_ii'
GPGPU-Sim uArch: Shader 6 bind to kernel 1 '_Z22bpnn_layerforward_CUDAPfS_S_S_ii'
GPGPU-Sim uArch: Shader 7 bind to kernel 1 '_Z22bpnn_layerforward_CUDAPfS_S_S_ii'
GPGPU-Sim uArch: Shader 8 bind to kernel 1 '_Z22bpnn_layerforward_CUDAPfS_S_S_ii'
GPGPU-Sim uArch: Shader 9 bind to kernel 1 '_Z22bpnn_layerforward_CUDAPfS_S_S_ii'
GPGPU-Sim uArch: Shader 10 bind to kernel 1 '_Z22bpnn_layerforward_CUDAPfS_S_S_ii'
GPGPU-Sim uArch: Shader 11 bind to kernel 1 '_Z22bpnn_layerforward_CUDAPfS_S_S_ii'
GPGPU-Sim uArch: Shader 12 bind to kernel 1 '_Z22bpnn_layerforward_CUDAPfS_S_S_ii'
GPGPU-Sim uArch: Shader 13 bind to kernel 1 '_Z22bpnn_layerforward_CUDAPfS_S_S_ii'
GPGPU-Sim uArch: Shader 14 bind to kernel 1 '_Z22bpnn_layerforward_CUDAPfS_S_S_ii'
GPGPU-Sim uArch: Shader 15 bind to kernel 1 '_Z22bpnn_layerforward_CUDAPfS_S_S_ii'
GPGPU-Sim uArch: Shader 17 bind to kernel 1 '_Z22bpnn_layerforward_CUDAPfS_S_S_ii'
GPGPU-Sim uArch: Shader 18 bind to kernel 1 '_Z22bpnn_layerforward_CUDAPfS_S_S_ii'
GPGPU-Sim uArch: Shader 17 bind to kernel 1 '_Z22bpnn_layerforward_CUDAPfS_S_S_ii'
GPGPU-Sim uArch: Shader 18 bind to kernel 1 '_Z22bpnn_layerforward_CUDAPfS_S_S_ii'
GPGPU-Sim uArch: Shader 19 bind to kernel 1 '_Z22bpnn_layerforward_CUDAPfS_S_S_ii'
GPGPU-Sim uArch: Shader 27 bind to kernel 1 '_Z22bpnn_layerforward_CUDAPfS_S_S_ii'
GPGPU-Sim uArch: Shader 0 bind to kernel 1 '_Z22bpnn_layerforward_CUDAPfS_S_S_ii'
GPGPU-Sim uArch: Shader 1 bind to kernel 1 '_Z22bpnn_layerforward_CUDAPfS_S_S_ii'
GPGPU-Sim uArch: Shader 2 bind to kernel 1 '_Z22bpnn_layerforward_CUDAPfS_S_S_ii'
GPGPU-Sim uArch: Shader 4 bind to kernel 1 '_Z22bpnn_layerforward_CUDAPfS_S_S_ii'
GPGPU-Sim uArch: Shader 5 bind to kernel 1 '_Z22bpnn_layerforward_CUDAPfS_S_S_ii'
GPGPU-Sim uArch: Shader 6 bind to kernel 1 '_Z22bpnn_layerforward_CUDAPfS_S_S_ii'
GPGPU-Sim uArch: Shader 7 bind to kernel 1 '_Z22bpnn_layerforward_CUDAPfS_S_S_ii'
GPGPU-Sim uArch: Shader 8 bind to kernel 1 '_Z22bpnn_layerforward_CUDAPfS_S_S_ii'
GPGPU-Sim uArch: Shader 9 bind to kernel 1 '_Z22bpnn_layerforward_CUDAPfS_S_S_ii'
GPGPU-Sim uArch: Shader 10 bind to kernel 1 '_Z22bpnn_layerforward_CUDAPfS_S_S_ii'
GPGPU-Sim uArch: Shader 11 bind to kernel 1 '_Z22bpnn_layerforward_CUDAPfS_S_S_ii'
GPGPU-Sim uArch: Shader 10 bind to kernel 1 '_Z22bpnn_layerforward_CUDAPfS_S_S_ii'
GPGPU-Sim uArch: Shader 11 bind to kernel 1 '_Z22bpnn_layerforward_CUDAPfS_S_S_ii'
GPGPU-Sim uArch: Shader 12 bind to kernel 1 '_Z22bpnn_layerforward_CUDAPfS_S_S_ii'
GPGPU-Sim uArch: Shader 15 bind to kernel 1 '_Z22bpnn_layerforward_CUDAPfS_S_S_ii'
GPGPU-Sim uArch: Shader 16 bind to kernel 1 '_Z22bpnn_layerforward_CUDAPfS_S_S_ii'
GPGPU-Sim uArch: Shader 17 bind to kernel 1 '_Z22bpnn_layerforward_CUDAPfS_S_S_ii'
GPGPU-Sim uArch: Shader 18 bind to kernel 1 '_Z22bpnn_layerforward_CUDAPfS_S_S_ii'
GPGPU-Sim uArch: Shader 19 bind to kernel 1 '_Z22bpnn_layerforward_CUDAPfS_S_S_ii'
GPGPU-Sim uArch: Shader 20 bind to kernel 1 '_Z22bpnn_layerforward_CUDAPfS_S_S_ii'
GPGPU-Sim uArch: Shader 21 bind to kernel 1 '_Z22bpnn_layerforward_CUDAPfS_S_S_ii'
GPGPU-Sim uArch: Shader 22 bind to kernel 1 '_Z22bpnn_layerforward_CUDAPfS_S_S_ii'
GPGPU-Sim uArch: Shader 23 bind to kernel 1 '_Z22bpnn_layerforward_CUDAPfS_S_S_ii'
GPGPU-Sim uArch: Shader 24 bind to kernel 1 '_Z22bpnn_layerforward_CUDAPfS_S_S_ii'
GPGPU-Sim uArch: Shader 25 bind to kernel 1 '_Z22bpnn_layerforward_CUDAPfS_S_S_ii'
GPGPU-Sim uArch: Shader 26 bind to kernel 1 '_Z22bpnn_layerforward_CUDAPfS_S_S_ii'
GPGPU-Sim uArch: Shader 3 bind to kernel 1 '_Z22bpnn_layerforward_CUDAPfS_S_S_ii'
GPGPU-Sim uArch: Shader 4 bind to kernel 1 '_Z22bpnn_layerforward_CUDAPfS_S_S_ii'
GPGPU-Sim uArch: Shader 15 bind to kernel 1 '_Z22bpnn_layerforward_CUDAPfS_S_S_ii'
GPGPU-Sim uArch: Shader 16 bind to kernel 1 '_Z22bpnn_layerforward_CUDAPfS_S_S_ii'
GPGPU-Sim uArch: Shader 17 bind to kernel 1 '_Z22bpnn_layerforward_CUDAPfS_S_S_ii'
GPGPU-Sim uArch: Shader 18 bind to kernel 1 '_Z22bpnn_layerforward_CUDAPfS_S_S_ii'
GPGPU-Sim uArch: Shader 19 bind to kernel 1 '_Z22bpnn_layerforward_CUDAPfS_S_S_ii'
GPGPU-Sim uArch: Shader 20 bind to kernel 1 '_Z22bpnn_layerforward_CUDAPfS_S_S_ii'
GPGPU-Sim uArch: Shader 21 bind to kernel 1 '_Z22bpnn_layerforward_CUDAPfS_S_S_ii'
GPGPU-Sim uArch: Shader 22 bind to kernel 1 '_Z22bpnn_layerforward_CUDAPfS_S_S_ii'
GPGPU-Sim uArch: Shader 1 bind to kernel 1 '_Z22bpnn_layerforward_CUDAPfS_S_S_ii'
GPGPU-Sim uArch: Shader 2 bind to kernel 1 '_Z22bpnn_layerforward_CUDAPfS_S_S_ii'
GPGPU-Sim uArch: Shader 3 bind to kernel 1 '_Z22bpnn_layerforward_CUDAPfS_S_S_ii'
GPGPU-Sim uArch: Shader 4 bind to kernel 1 '_Z22bpnn_layerforward_CUDAPfS_S_S_ii'
GPGPU-Sim uArch: Shader 8 bind to kernel 1 '_Z22bpnn_layerforward_CUDAPfS_S_S_ii'
GPGPU-Sim uArch: Shader 9 bind to kernel 1 '_Z22bpnn_layerforward_CUDAPfS_S_S_ii'
GPGPU-Sim uArch: Shader 10 bind to kernel 1 '_Z22bpnn_layerforward_CUDAPfS_S_S_ii'
GPGPU-Sim uArch: Shader 11 bind to kernel 1 '_Z22bpnn_layerforward_CUDAPfS_S_S_ii'
GPGPU-Sim uArch: Shader 12 bind to kernel 1 '_Z22bpnn_layerforward_CUDAPfS_S_S_ii'
Destroy streams for kernel 1: size 0
kernel_name = _Z22bpnn_layerforward_CUDAPfS_S_S_ii 
kernel_launch_uid = 1 
gpu_sim_cycle = 6351005
gpu_sim_insn = 224892096
gpu_ipc =      35.4105
gpu_tot_sim_cycle = 6573155
gpu_tot_sim_insn = 224892096
gpu_tot_ipc =      34.2137
gpu_tot_issued_cta = 8191
max_total_param_size = 0
gpu_stall_dramfull = 8
gpu_stall_icnt2sh    = 69248
partiton_reqs_in_parallel = 139722102
partiton_reqs_in_parallel_total    = 0
partiton_level_parallism =      22.0000
partiton_level_parallism_total  =      21.2565
partiton_reqs_in_parallel_util = 139722102
partiton_reqs_in_parallel_util_total    = 0
gpu_sim_cycle_parition_util = 6351005
gpu_tot_sim_cycle_parition_util    = 0
partiton_level_parallism_util =      22.0000
partiton_level_parallism_util_total  =      22.0000
partiton_replys_in_parallel = 397459
partiton_replys_in_parallel_total    = 0
L2_BW  =       5.9318 GB/Sec
L2_BW_total  =       5.7313 GB/Sec
gpu_total_sim_rate=33486

========= Core cache stats =========
L1I_cache:
	L1I_total_cache_accesses = 4677061
	L1I_total_cache_misses = 3249
	L1I_total_cache_miss_rate = 0.0007
	L1I_total_cache_pending_hits = 0
	L1I_total_cache_reservation_fails = 6846
L1D_cache:
	L1D_cache_core[0]: Access = 0, Miss = 0, Miss_rate = -nan, Pending_hits = 0, Reservation_fails = 0
	L1D_cache_core[1]: Access = 0, Miss = 0, Miss_rate = -nan, Pending_hits = 0, Reservation_fails = 0
	L1D_cache_core[2]: Access = 0, Miss = 0, Miss_rate = -nan, Pending_hits = 0, Reservation_fails = 0
	L1D_cache_core[3]: Access = 0, Miss = 0, Miss_rate = -nan, Pending_hits = 0, Reservation_fails = 0
	L1D_cache_core[4]: Access = 0, Miss = 0, Miss_rate = -nan, Pending_hits = 0, Reservation_fails = 0
	L1D_cache_core[5]: Access = 0, Miss = 0, Miss_rate = -nan, Pending_hits = 0, Reservation_fails = 0
	L1D_cache_core[6]: Access = 0, Miss = 0, Miss_rate = -nan, Pending_hits = 0, Reservation_fails = 0
	L1D_cache_core[7]: Access = 0, Miss = 0, Miss_rate = -nan, Pending_hits = 0, Reservation_fails = 0
	L1D_cache_core[8]: Access = 0, Miss = 0, Miss_rate = -nan, Pending_hits = 0, Reservation_fails = 0
	L1D_cache_core[9]: Access = 0, Miss = 0, Miss_rate = -nan, Pending_hits = 0, Reservation_fails = 0
	L1D_cache_core[10]: Access = 0, Miss = 0, Miss_rate = -nan, Pending_hits = 0, Reservation_fails = 0
	L1D_cache_core[11]: Access = 0, Miss = 0, Miss_rate = -nan, Pending_hits = 0, Reservation_fails = 0
	L1D_cache_core[12]: Access = 0, Miss = 0, Miss_rate = -nan, Pending_hits = 0, Reservation_fails = 0
	L1D_cache_core[13]: Access = 0, Miss = 0, Miss_rate = -nan, Pending_hits = 0, Reservation_fails = 0
	L1D_cache_core[14]: Access = 0, Miss = 0, Miss_rate = -nan, Pending_hits = 0, Reservation_fails = 0
	L1D_cache_core[15]: Access = 0, Miss = 0, Miss_rate = -nan, Pending_hits = 0, Reservation_fails = 0
	L1D_cache_core[16]: Access = 0, Miss = 0, Miss_rate = -nan, Pending_hits = 0, Reservation_fails = 0
	L1D_cache_core[17]: Access = 0, Miss = 0, Miss_rate = -nan, Pending_hits = 0, Reservation_fails = 0
	L1D_cache_core[18]: Access = 0, Miss = 0, Miss_rate = -nan, Pending_hits = 0, Reservation_fails = 0
	L1D_cache_core[19]: Access = 0, Miss = 0, Miss_rate = -nan, Pending_hits = 0, Reservation_fails = 0
	L1D_cache_core[20]: Access = 0, Miss = 0, Miss_rate = -nan, Pending_hits = 0, Reservation_fails = 0
	L1D_cache_core[21]: Access = 0, Miss = 0, Miss_rate = -nan, Pending_hits = 0, Reservation_fails = 0
	L1D_cache_core[22]: Access = 0, Miss = 0, Miss_rate = -nan, Pending_hits = 0, Reservation_fails = 0
	L1D_cache_core[23]: Access = 0, Miss = 0, Miss_rate = -nan, Pending_hits = 0, Reservation_fails = 0
	L1D_cache_core[24]: Access = 0, Miss = 0, Miss_rate = -nan, Pending_hits = 0, Reservation_fails = 0
	L1D_cache_core[25]: Access = 0, Miss = 0, Miss_rate = -nan, Pending_hits = 0, Reservation_fails = 0
	L1D_cache_core[26]: Access = 0, Miss = 0, Miss_rate = -nan, Pending_hits = 0, Reservation_fails = 0
	L1D_cache_core[27]: Access = 0, Miss = 0, Miss_rate = -nan, Pending_hits = 0, Reservation_fails = 0
	L1D_total_cache_accesses = 0
	L1D_total_cache_misses = 0
	L1D_total_cache_pending_hits = 0
	L1D_total_cache_reservation_fails = 0
	L1D_cache_data_port_util = 0.000
	L1D_cache_fill_port_util = 0.000
L1C_cache:
	L1C_total_cache_accesses = 262112
	L1C_total_cache_misses = 1792
	L1C_total_cache_miss_rate = 0.0068
	L1C_total_cache_pending_hits = 0
	L1C_total_cache_reservation_fails = 4886
L1T_cache:
	L1T_total_cache_accesses = 0
	L1T_total_cache_misses = 0
	L1T_total_cache_pending_hits = 0
	L1T_total_cache_reservation_fails = 0

Total_core_cache_stats:
	Total_core_cache_stats_breakdown[GLOBAL_ACC_R][HIT] = 0
	Total_core_cache_stats_breakdown[GLOBAL_ACC_R][HIT_RESERVED] = 0
	Total_core_cache_stats_breakdown[GLOBAL_ACC_R][MISS] = 0
	Total_core_cache_stats_breakdown[GLOBAL_ACC_R][RESERVATION_FAIL] = 0
	Total_core_cache_stats_breakdown[LOCAL_ACC_R][HIT] = 0
	Total_core_cache_stats_breakdown[LOCAL_ACC_R][HIT_RESERVED] = 0
	Total_core_cache_stats_breakdown[LOCAL_ACC_R][MISS] = 0
	Total_core_cache_stats_breakdown[LOCAL_ACC_R][RESERVATION_FAIL] = 0
	Total_core_cache_stats_breakdown[CONST_ACC_R][HIT] = 260320
	Total_core_cache_stats_breakdown[CONST_ACC_R][HIT_RESERVED] = 0
	Total_core_cache_stats_breakdown[CONST_ACC_R][MISS] = 1792
	Total_core_cache_stats_breakdown[CONST_ACC_R][RESERVATION_FAIL] = 4886
	Total_core_cache_stats_breakdown[TEXTURE_ACC_R][HIT] = 0
	Total_core_cache_stats_breakdown[TEXTURE_ACC_R][HIT_RESERVED] = 0
	Total_core_cache_stats_breakdown[TEXTURE_ACC_R][MISS] = 0
	Total_core_cache_stats_breakdown[TEXTURE_ACC_R][RESERVATION_FAIL] = 0
	Total_core_cache_stats_breakdown[GLOBAL_ACC_W][HIT] = 0
	Total_core_cache_stats_breakdown[GLOBAL_ACC_W][HIT_RESERVED] = 0
	Total_core_cache_stats_breakdown[GLOBAL_ACC_W][MISS] = 0
	Total_core_cache_stats_breakdown[GLOBAL_ACC_W][RESERVATION_FAIL] = 0
	Total_core_cache_stats_breakdown[LOCAL_ACC_W][HIT] = 0
	Total_core_cache_stats_breakdown[LOCAL_ACC_W][HIT_RESERVED] = 0
	Total_core_cache_stats_breakdown[LOCAL_ACC_W][MISS] = 0
	Total_core_cache_stats_breakdown[LOCAL_ACC_W][RESERVATION_FAIL] = 0
	Total_core_cache_stats_breakdown[L1_WRBK_ACC][HIT] = 0
	Total_core_cache_stats_breakdown[L1_WRBK_ACC][HIT_RESERVED] = 0
	Total_core_cache_stats_breakdown[L1_WRBK_ACC][MISS] = 0
	Total_core_cache_stats_breakdown[L1_WRBK_ACC][RESERVATION_FAIL] = 0
	Total_core_cache_stats_breakdown[L2_WRBK_ACC][HIT] = 0
	Total_core_cache_stats_breakdown[L2_WRBK_ACC][HIT_RESERVED] = 0
	Total_core_cache_stats_breakdown[L2_WRBK_ACC][MISS] = 0
	Total_core_cache_stats_breakdown[L2_WRBK_ACC][RESERVATION_FAIL] = 0
	Total_core_cache_stats_breakdown[INST_ACC_R][HIT] = 4673812
	Total_core_cache_stats_breakdown[INST_ACC_R][HIT_RESERVED] = 0
	Total_core_cache_stats_breakdown[INST_ACC_R][MISS] = 3249
	Total_core_cache_stats_breakdown[INST_ACC_R][RESERVATION_FAIL] = 6846
	Total_core_cache_stats_breakdown[L1_WR_ALLOC_R][HIT] = 0
	Total_core_cache_stats_breakdown[L1_WR_ALLOC_R][HIT_RESERVED] = 0
	Total_core_cache_stats_breakdown[L1_WR_ALLOC_R][MISS] = 0
	Total_core_cache_stats_breakdown[L1_WR_ALLOC_R][RESERVATION_FAIL] = 0
	Total_core_cache_stats_breakdown[L2_WR_ALLOC_R][HIT] = 0
	Total_core_cache_stats_breakdown[L2_WR_ALLOC_R][HIT_RESERVED] = 0
	Total_core_cache_stats_breakdown[L2_WR_ALLOC_R][MISS] = 0
	Total_core_cache_stats_breakdown[L2_WR_ALLOC_R][RESERVATION_FAIL] = 0
	Total_core_cache_stats_breakdown[CONST_ACC_R][TOTAL_ACCESS] = 262112
	Total_core_cache_stats_breakdown[INST_ACC_R][TOTAL_ACCESS] = 4677061
Shader 0 warp_id issue ditsribution:
warp_id:
0, 1, 2, 3, 4, 5, 6, 7, 8, 9, 10, 11, 12, 13, 14, 15, 16, 17, 18, 19, 20, 21, 22, 23, 24, 25, 26, 27, 28, 29, 30, 31, 32, 33, 34, 35, 36, 37, 38, 39, 40, 41, 42, 43, 44, 45, 46, 47, 48, 49, 50, 51, 52, 53, 54, 55, 56, 57, 58, 59, 60, 61, 62, 63, 
distro:
6620, 5284, 5693, 5287, 6233, 5296, 5752, 5331, 6623, 5285, 5694, 5290, 6234, 5295, 5747, 5335, 6623, 5283, 5697, 5291, 6241, 5294, 5741, 5336, 6618, 5287, 5692, 5295, 6234, 5296, 5747, 5333, 6622, 5289, 5695, 5289, 6239, 5296, 5743, 5329, 6446, 5147, 5543, 5143, 6067, 5152, 5593, 5186, 6264, 4992, 5384, 4997, 5893, 5012, 5439, 5045, 6443, 5153, 5543, 5143, 6069, 5151, 5597, 5192, 
gpgpu_n_tot_thrd_icount = 284391520
gpgpu_n_tot_w_icount = 8887235
gpgpu_n_stall_shd_mem = 306158
gpgpu_n_mem_read_local = 0
gpgpu_n_mem_write_local = 0
gpgpu_n_mem_read_global = 200679
gpgpu_n_mem_write_global = 196584
gpgpu_n_mem_texture = 0
gpgpu_n_mem_const = 28
gpgpu_n_load_insn  = 2227952
gpgpu_n_store_insn = 2227952
gpgpu_n_shmem_insn = 16644112
gpgpu_n_tex_insn = 0
gpgpu_n_const_mem_insn = 0
gpgpu_n_param_mem_insn = 8387584
gpgpu_n_shmem_bkconflict = 0
gpgpu_n_cache_bkconflict = 0
gpgpu_n_intrawarp_mshr_merge = 0
gpgpu_n_cmem_portconflict = 4886
gpgpu_stall_shd_mem[c_mem][bk_conf] = 4886
gpgpu_stall_shd_mem[c_mem][mshr_rc] = 0
gpgpu_stall_shd_mem[c_mem][icnt_rc] = 0
gpgpu_stall_shd_mem[c_mem][data_port_stall] = 0
gpgpu_stall_shd_mem[t_mem][mshr_rc] = 0
gpgpu_stall_shd_mem[t_mem][icnt_rc] = 0
gpgpu_stall_shd_mem[t_mem][data_port_stall] = 0
gpgpu_stall_shd_mem[s_mem][bk_conf] = 0
gpgpu_stall_shd_mem[gl_mem][bk_conf] = 0
gpgpu_stall_shd_mem[gl_mem][coal_stall] = 257149
gpgpu_stall_shd_mem[gl_mem][data_port_stall] = 0
gpgpu_stall_shd_mem[g_mem_ld][mshr_rc] = 0
gpgpu_stall_shd_mem[g_mem_ld][icnt_rc] = 44123
gpgpu_stall_shd_mem[g_mem_ld][wb_icnt_rc] = 0
gpgpu_stall_shd_mem[g_mem_ld][wb_rsrv_fail] = 0
gpgpu_stall_shd_mem[g_mem_st][mshr_rc] = 0
gpgpu_stall_shd_mem[g_mem_st][icnt_rc] = 0
gpgpu_stall_shd_mem[g_mem_st][wb_icnt_rc] = 0
gpgpu_stall_shd_mem[g_mem_st][wb_rsrv_fail] = 0
gpgpu_stall_shd_mem[l_mem_ld][mshr_rc] = 0
gpgpu_stall_shd_mem[l_mem_ld][icnt_rc] = 0
gpgpu_stall_shd_mem[l_mem_ld][wb_icnt_rc] = 0
gpgpu_stall_shd_mem[l_mem_ld][wb_rsrv_fail] = 0
gpgpu_stall_shd_mem[l_mem_st][mshr_rc] = 0
gpgpu_stall_shd_mem[l_mem_st][icnt_rc] = 0
gpgpu_stall_shd_mem[l_mem_ld][wb_icnt_rc] = 0
gpgpu_stall_shd_mem[l_mem_ld][wb_rsrv_fail] = 0
gpu_reg_bank_conflict_stalls = 0
Warp Occupancy Distribution:
Stall:389516	W0_Idle:39514710	W0_Scoreboard:308049230	W1:0	W2:1048448	W3:0	W4:0	W5:0	W6:0	W7:0	W8:0	W9:0	W10:0	W11:0	W12:0	W13:0	W14:0	W15:0	W16:1351515	W17:0	W18:0	W19:0	W20:0	W21:0	W22:0	W23:0	W24:0	W25:0	W26:0	W27:0	W28:0	W29:0	W30:0	W31:0	W32:6487272
traffic_breakdown_coretomem[CONST_ACC_R] = 224 {8:28,}
traffic_breakdown_coretomem[GLOBAL_ACC_R] = 1605432 {8:200679,}
traffic_breakdown_coretomem[GLOBAL_ACC_W] = 15202464 {40:98293,72:32763,136:65528,}
traffic_breakdown_coretomem[INST_ACC_R] = 1344 {8:168,}
traffic_breakdown_memtocore[CONST_ACC_R] = 2016 {72:28,}
traffic_breakdown_memtocore[GLOBAL_ACC_R] = 16021592 {40:90101,72:40954,136:69624,}
traffic_breakdown_memtocore[GLOBAL_ACC_W] = 1572672 {8:196584,}
traffic_breakdown_memtocore[INST_ACC_R] = 22848 {136:168,}
maxmrqlatency = 145 
maxdqlatency = 0 
maxmflatency = 156276 
averagemflatency = 37356 
max_icnt2mem_latency = 155992 
max_icnt2sh_latency = 6573154 
mrq_lat_table:71424 	2863 	3990 	19654 	56644 	33305 	3529 	3 	0 	0 	0 	0 	0 	0 	0 	0 	0 	0 	0 	0 	0 	0 	0 	0 	0 	0 	0 	0 	0 	0 	0 	0 	
dq_lat_table:0 	0 	0 	0 	0 	0 	0 	0 	0 	0 	0 	0 	0 	0 	0 	0 	0 	0 	0 	0 	0 	0 	0 	0 	0 	0 	0 	0 	0 	0 	0 	0 	
mf_lat_table:0 	0 	0 	0 	0 	0 	0 	140840 	10913 	0 	96 	20127 	37676 	11704 	21985 	46418 	84120 	23412 	0 	0 	0 	0 	0 	0 	0 	0 	0 	0 	0 	0 	0 	0 	
icnt2mem_lat_table:0 	0 	29528 	116675 	292 	0 	5410 	16 	0 	0 	96 	20289 	37514 	11704 	23211 	45192 	84120 	23412 	0 	0 	0 	0 	0 	0 	
icnt2sh_lat_table:0 	0 	56690 	81750 	59543 	2705 	19 	0 	0 	0 	0 	0 	0 	0 	0 	0 	0 	592 	7584 	16464 	32000 	64768 	75176 	0 	
mf_lat_pw_table:0 	0 	0 	0 	0 	0 	0 	2519 	103 	0 	0 	48 	89 	142 	275 	593 	1109 	404 	0 	0 	0 	0 	0 	0 	0 	0 	0 	0 	0 	0 	0 	0 	
maximum concurrent accesses to same row:
dram[0]:        85        85        68        68        68        68        68        68        77        68        85        85        85        85        85       102 
dram[1]:        85        85        68        68        68        68        68        68        68        68        85        85        85        85        85        85 
dram[2]:        85        85        85        77        68        68        85        85        68        68        77        85        85        85        85        85 
dram[3]:       102       102        85        85        68        68        85        85        68        68        81        77        85        85        85        85 
dram[4]:        85        85        85        85        68        68        85        85        85        85        68        68        85        85        77        85 
dram[5]:        85        85        85        85        68        68        85        85        85        85        68        68        85        85        68        85 
dram[6]:        85        85        85        77        60        51        85        85        85        85        68        68        85        85        77        85 
dram[7]:        85        85        85        85        68        68        85        85        85        85        68        68        85        85        85        77 
dram[8]:        85       153        85        85        68        68        85        85        85        85        68        68       102       102        85        85 
dram[9]:       153       153        85        85        68        68        77        68        85        85        68        68        85        85        85        85 
dram[10]:       170       170        85        85        68        68        68        68        85        85        68        68        85        85        85        85 
maximum service time to same row:
dram[0]:    271707    271703    300311    300308    266494    266494    271701    271705    269098    269097    276914    276909    282121    282120    258586    258585 
dram[1]:    271703    271704    300308    300308    266493    266493    271708    271703    269096    269097    276906    276912    282116    282123    258584    258583 
dram[2]:    271701    271708    300308    300311    266499    266493    271703    271703    269089    269089    276909    276909    282123    282119    258592    258577 
dram[3]:    271703    271702    300310    300308    266492    266496    271700    271705    269083    269098    276910    276910    282118    282117    258577    258583 
dram[4]:    271707    271706    300311    300310    266496    266496    271705    271706    269096    269094    276910    276910    282123    282120    258578    258579 
dram[5]:    271701    271701    300306    300305    266493    266497    271708    271700    269094    269093    276907    276915    282123    282125    258577    258577 
dram[6]:    271701    271711    300306    300317    266506    266507    271700    271699    269100    269094    276916    276914    282123    282128    258578    258574 
dram[7]:    271717    271702    300322    300308    266491    266492    271701    271694    269094    269097    276919    276903    282113    282112    258574    258583 
dram[8]:    271702    271701    300307    300305    266490    266490    271709    271709    269097    269098    276902    276900    282121    282125    258581    258582 
dram[9]:    271697    271697    300303    300301    266490    266490    271709    271715    269089    269089    276899    276900    282127    282124    258577    258577 
dram[10]:    271695    271691    300301    300296    266481    266496    271704    271704    269097    269097    276912    276912    282124    282124    258578    258577 
average row accesses per activate:
dram[0]:  3.865204  3.841121  3.737952  3.794562  3.100304  3.140673  2.808696  2.794798  2.969136  3.021672  3.018809  3.079365  3.301538  3.354037  3.743034  3.754601 
dram[1]:  3.813084  3.862928  3.693452  3.749254  3.119266  3.150307  2.794798  2.747126  2.941896  2.990741  2.993789  3.034375  3.357143  3.368421  3.757669  3.790769 
dram[2]:  3.791277  3.795031  3.759036  3.762048  3.109756  3.150307  2.789017  2.862170  2.993865  2.984710  3.003115  3.072785  3.294478  3.378882  3.744681  3.757764 
dram[3]:  3.770642  3.827161  3.741641  3.814590  3.057751  3.153846  2.841642  2.896142  2.918675  2.909910  2.959627  3.000000  3.274390  3.368421  3.756173  3.749226 
dram[4]:  3.679758  3.743119  3.790274  3.765957  3.060423  3.085366  2.875371  2.913433  2.918675  2.909910  2.978193  2.950617  3.304615  3.396875  3.770898  3.782209 
dram[5]:  3.700906  3.780488  3.674627  3.757485  3.002967  3.109091  2.863095  2.948641  2.904762  2.875371  2.993827  2.953988  3.301538  3.333333  3.747720  3.783951 
dram[6]:  3.715152  3.790769  3.644970  3.600000  3.029940  3.018018  2.846154  2.930931  2.930931  2.993865  2.975460  2.984615  3.321981  3.333333  3.736196  3.805556 
dram[7]:  3.733945  3.823529  3.644970  3.678466  3.002967  3.078550  2.825444  2.896142  2.954268  2.975610  2.966361  2.905775  3.339564  3.343653  3.789474  3.804348 
dram[8]:  3.763804  3.857143  3.703264  3.756024  3.014881  3.035714  2.852507  2.841642  2.954268  3.012346  3.012422  3.031250  3.320122  3.344512  3.811912  3.838006 
dram[9]:  3.823529  3.859375  3.677612  3.734940  3.081571  3.029940  2.866864  2.858407  2.948641  2.984710  2.990683  3.031250  3.300000  3.253731  3.786834  3.811912 
dram[10]:  3.905660  3.905660  3.702703  3.756024  3.030211  3.002994  2.811047  2.816860  2.960000  3.031056  3.050314  3.069620  3.376147  3.344512  3.811912  3.825545 
average row locality = 191412/57791 = 3.312142
number of total memory accesses made:
dram[0]:         0         0         0         0         0         0         0         0         0         0         0         0         0         0         0         0 
dram[1]:         0         0         0         0         0         0         0         0         0         0         0         0         0         0         0         0 
dram[2]:         0         0         0         0         0         0         0         0         0         0         0         0         0         0         0         0 
dram[3]:         0         0         0         0         0         0         0         0         0         0         0         0         0         0         0         0 
dram[4]:         0         0         0         0         0         0         0         0         0         0         0         0         0         0         0         0 
dram[5]:         0         0         0         0         0         0         0         0         0         0         0         0         0         0         0         0 
dram[6]:         0         0         0         0         0         0         0         0         0         0         0         0         0         0         0         0 
dram[7]:         0         0         0         0         0         0         0         0         0         0         0         0         0         0         0         0 
dram[8]:         0         0         0         0         0         0         0         0         0         0         0         0         0         0         0         0 
dram[9]:         0         0         0         0         0         0         0         0         0         0         0         0         0         0         0         0 
dram[10]:         0         0         0         0         0         0         0         0         0         0         0         0         0         0         0         0 
total accesses: 0
min_bank_accesses = 0!
min_chip_accesses = 0!
number of total read accesses:
dram[0]:       453       452       456       456       435       435       432       432       432       432       434       434       448       448       448       448 
dram[1]:       452       452       456       456       435       435       432       432       432       432       435       435       448       448       448       448 
dram[2]:       452       452       456       456       435       435       432       432       432       432       435       435       448       448       448       448 
dram[3]:       452       452       455       455       435       435       432       432       432       432       435       435       448       448       448       448 
dram[4]:       452       452       455       455       435       435       432       432       432       432       435       435       448       447       449       449 
dram[5]:       452       452       455       455       435       435       432       432       432       432       435       435       447       447       449       449 
dram[6]:       452       452       455       455       435       435       432       432       432       432       435       435       447       447       449       449 
dram[7]:       453       453       455       455       435       435       432       432       432       432       435       435       447       447       448       448 
dram[8]:       453       453       455       455       435       435       432       432       432       432       435       435       448       448       448       448 
dram[9]:       453       453       455       455       435       435       432       432       432       432       435       435       448       448       448       448 
dram[10]:       453       453       455       455       434       434       432       432       432       432       435       435       448       448       448       448 
total reads: 77824
bank skew: 456/432 = 1.06
chip skew: 7076/7074 = 1.00
number of total write accesses:
dram[0]:       780       781       785       800       585       592       537       535       530       544       529       536       625       632       761       776 
dram[1]:       772       788       785       800       585       592       535       524       530       537       529       536       633       640       777       784 
dram[2]:       765       770       792       793       585       592       533       544       544       544       529       536       626       640       784       762 
dram[3]:       781       788       776       800       571       590       537       544       537       537       518       528       626       640       769       763 
dram[4]:       766       772       792       784       578       577       537       544       537       537       521       521       626       640       769       784 
dram[5]:       773       788       776       800       577       591       530       544       544       537       535       528       626       633       784       777 
dram[6]:       774       780       777       769       577       570       530       544       544       544       535       535       626       633       769       784 
dram[7]:       768       782       777       792       577       584       523       544       537       544       535       521       625       633       776       777 
dram[8]:       774       789       793       792       578       585       535       537       537       544       535       535       641       649       768       784 
dram[9]:       782       782       777       785       585       577       537       537       544       544       528       535       641       642       760       768 
dram[10]:       789       789       778       792       569       569       535       537       530       544       535       535       656       649       768       780 
total reads: 113588
bank skew: 800/518 = 1.54
chip skew: 10376/10285 = 1.01
average mf latency per bank:
dram[0]:      74647     74146     74544     73220     77653     76054     84650     84935     79505     77791     80862     80138     85463     83671     71330     70021
dram[1]:      76682     74883     74705     72941     75935     75396     84184     84709     78604     77825     80708     79559     85574     84924     71713     70639
dram[2]:      76414     75501     72817     72322     75654     75091     86325     85187     78451     77682     80094     78677     86144     83873     69987     70200
dram[3]:      76619     75478     75453     72925     76456     74281     85930     84631     78362     78306     79551     78607     84402     82661     71530     71927
dram[4]:      76745     75549     72650     72319     74689     74191     84950     83468     80576     79829     80740     79582     83705     82122     72143     70205
dram[5]:      76961     75701     74343     72135     75853     74232     84427     82659     79182     79080     78364     79274     82804     81797     69657     70495
dram[6]:      76246     75680     72389     71763     74858     74764     83483     82311     80946     80903     80733     80833     84222     83060     72346     69517
dram[7]:      78196     76589     74953     73777     76040     74679     84201     81898     81223     80005     80820     81584     82693     81810     69512     69295
dram[8]:      77878     75794     73723     72788     75052     75141     81977     81570     80571     79906     82535     81813     84906     83602     71296     69043
dram[9]:      75554     75579     74563     74006     77050     76800     83427     82112     79826     79169     82253     81265     83555     83114     69982     69214
dram[10]:      76783     75258     75817     74039     77454     76993     82073     82410     79566     78025     81140     80787     84455     84733     71268     69621
maximum mf latency per bank:
dram[0]:     156230    156247    156257    156242    156254    156276    156224    156231    156244    156249    156242    156243    156273    156266    156242    156260
dram[1]:     156226    156245    156244    156245    156262    156259    156222    156230    156246    156247    156236    156244    156272    156257    156246    156260
dram[2]:     156225    156244    156247    156229    156250    156258    156230    156240    156231    156233    156237    156253    156269    156270    156260    156267
dram[3]:     156223    156243    156229    156231    156246    156254    156234    156248    156234    156228    156244    156244    156247    156262    156252    156245
dram[4]:     156245    156241    156239    156245    156252    156251    156226    156228    156241    156241    156246    156247    156251    156262    156254    156254
dram[5]:     156229    156220    156232    156246    156254    156258    156210    156227    156243    156244    156227    156233    156243    156253    156265    156257
dram[6]:     156220    156225    156239    156257    156256    156257    156214    156227    156246    156238    156232    156238    156253    156240    156259    156241
dram[7]:     156218    156228    156248    156249    156259    156241    156216    156227    156228    156244    156241    156242    156253    156253    156241    156243
dram[8]:     156230    156240    156257    156251    156241    156246    156215    156208    156243    156249    156243    156244    156255    156256    156252    156254
dram[9]:     156240    156242    156252    156237    156249    156264    156214    156228    156235    156250    156246    156249    156273    156240    156255    156257
dram[10]:     156243    156245    156258    156250    156252    156264    156215    156217    156243    156253    156238    156249    156268    156252    156257    156270
Memory Partition 0: 
Cache L2_bank_000:
MSHR contents

Cache L2_bank_001:
MSHR contents

In Dram Latency Queue (total = 0): 
DRAM[0]: 16 bks, busW=4 BL=8 CL=12, tRRD=2 tCCD=6, tRCD=12 tRAS=28 tRP=12 tRC=40
n_cmd=11792884 n_nop=11730271 n_act=5228 n_pre=5212 n_req=17403 n_rd=28300 n_write=23873 bw_util=0.008848
n_activity=200814 dram_eff=0.5196
bk0: 1812a 11775209i bk1: 1808a 11772368i bk2: 1824a 11775001i bk3: 1824a 11772037i bk4: 1740a 11776000i bk5: 1740a 11773212i bk6: 1728a 11775894i bk7: 1728a 11773417i bk8: 1728a 11776414i bk9: 1728a 11773881i bk10: 1736a 11776346i bk11: 1736a 11773770i bk12: 1792a 11776086i bk13: 1792a 11773367i bk14: 1792a 11775305i bk15: 1792a 11772354i 
dram_util_bins: 0 0 0 0 0 0 0 0 0 0
dram_eff_bins: 0 0 0 0 0 0 0 0 0 0
mrqq: max=62 avg=0.0452935
Memory Partition 1: 
Cache L2_bank_002:
MSHR contents

Cache L2_bank_003:
MSHR contents

In Dram Latency Queue (total = 0): 
DRAM[1]: 16 bks, busW=4 BL=8 CL=12, tRRD=2 tCCD=6, tRCD=12 tRAS=28 tRP=12 tRC=40
n_cmd=11792884 n_nop=11730200 n_act=5249 n_pre=5233 n_req=17423 n_rd=28304 n_write=23898 bw_util=0.008853
n_activity=201238 dram_eff=0.5188
bk0: 1808a 11775284i bk1: 1808a 11772594i bk2: 1824a 11774752i bk3: 1824a 11771760i bk4: 1740a 11775889i bk5: 1740a 11773183i bk6: 1728a 11775968i bk7: 1728a 11773284i bk8: 1728a 11776167i bk9: 1728a 11773822i bk10: 1740a 11776178i bk11: 1740a 11773576i bk12: 1792a 11776099i bk13: 1792a 11773358i bk14: 1792a 11775266i bk15: 1792a 11772389i 
dram_util_bins: 0 0 0 0 0 0 0 0 0 0
dram_eff_bins: 0 0 0 0 0 0 0 0 0 0
mrqq: max=59 avg=0.0460116
Memory Partition 2: 
Cache L2_bank_004:
MSHR contents

Cache L2_bank_005:
MSHR contents

In Dram Latency Queue (total = 0): 
DRAM[2]: 16 bks, busW=4 BL=8 CL=12, tRRD=2 tCCD=6, tRCD=12 tRAS=28 tRP=12 tRC=40
n_cmd=11792884 n_nop=11730244 n_act=5237 n_pre=5221 n_req=17415 n_rd=28304 n_write=23878 bw_util=0.00885
n_activity=200861 dram_eff=0.5196
bk0: 1808a 11775130i bk1: 1808a 11772316i bk2: 1824a 11774804i bk3: 1824a 11771715i bk4: 1740a 11775866i bk5: 1740a 11772994i bk6: 1728a 11775846i bk7: 1728a 11773627i bk8: 1728a 11776267i bk9: 1728a 11773684i bk10: 1740a 11776177i bk11: 1740a 11773736i bk12: 1792a 11775877i bk13: 1792a 11773301i bk14: 1792a 11775186i bk15: 1792a 11772496i 
dram_util_bins: 0 0 0 0 0 0 0 0 0 0
dram_eff_bins: 0 0 0 0 0 0 0 0 0 0
mrqq: max=59 avg=0.0455452
Memory Partition 3: 
Cache L2_bank_006:
MSHR contents

Cache L2_bank_007:
MSHR contents

In Dram Latency Queue (total = 0): 
DRAM[3]: 16 bks, busW=4 BL=8 CL=12, tRRD=2 tCCD=6, tRCD=12 tRAS=28 tRP=12 tRC=40
n_cmd=11792884 n_nop=11730251 n_act=5247 n_pre=5231 n_req=17379 n_rd=28296 n_write=23859 bw_util=0.008845
n_activity=200159 dram_eff=0.5211
bk0: 1808a 11775087i bk1: 1808a 11772261i bk2: 1820a 11774957i bk3: 1820a 11772135i bk4: 1740a 11775518i bk5: 1740a 11773105i bk6: 1728a 11776169i bk7: 1728a 11773685i bk8: 1728a 11776226i bk9: 1728a 11773388i bk10: 1740a 11776393i bk11: 1740a 11773596i bk12: 1792a 11775998i bk13: 1792a 11773198i bk14: 1792a 11775203i bk15: 1792a 11772353i 
dram_util_bins: 0 0 0 0 0 0 0 0 0 0
dram_eff_bins: 0 0 0 0 0 0 0 0 0 0
mrqq: max=59 avg=0.0451062
Memory Partition 4: 
Cache L2_bank_008:
MSHR contents

Cache L2_bank_009:
MSHR contents

In Dram Latency Queue (total = 0): 
DRAM[4]: 16 bks, busW=4 BL=8 CL=12, tRRD=2 tCCD=6, tRCD=12 tRAS=28 tRP=12 tRC=40
n_cmd=11792884 n_nop=11730262 n_act=5251 n_pre=5235 n_req=17360 n_rd=28300 n_write=23836 bw_util=0.008842
n_activity=200844 dram_eff=0.5192
bk0: 1808a 11775135i bk1: 1808a 11772420i bk2: 1820a 11775102i bk3: 1820a 11771991i bk4: 1740a 11775603i bk5: 1740a 11772996i bk6: 1728a 11776143i bk7: 1728a 11773644i bk8: 1728a 11776123i bk9: 1728a 11773475i bk10: 1740a 11776342i bk11: 1740a 11773684i bk12: 1792a 11775930i bk13: 1788a 11773243i bk14: 1796a 11775194i bk15: 1796a 11772196i 
dram_util_bins: 0 0 0 0 0 0 0 0 0 0
dram_eff_bins: 0 0 0 0 0 0 0 0 0 0
mrqq: max=59 avg=0.045243
Memory Partition 5: 
Cache L2_bank_010:
MSHR contents

Cache L2_bank_011:
MSHR contents

In Dram Latency Queue (total = 0): 
DRAM[5]: 16 bks, busW=4 BL=8 CL=12, tRRD=2 tCCD=6, tRCD=12 tRAS=28 tRP=12 tRC=40
n_cmd=11792884 n_nop=11730154 n_act=5287 n_pre=5271 n_req=17417 n_rd=28296 n_write=23876 bw_util=0.008848
n_activity=202166 dram_eff=0.5161
bk0: 1808a 11775091i bk1: 1808a 11772241i bk2: 1820a 11774764i bk3: 1820a 11772132i bk4: 1740a 11775560i bk5: 1740a 11773195i bk6: 1728a 11776171i bk7: 1728a 11773693i bk8: 1728a 11776007i bk9: 1728a 11773347i bk10: 1740a 11776165i bk11: 1740a 11773543i bk12: 1788a 11775846i bk13: 1788a 11773224i bk14: 1796a 11774958i bk15: 1796a 11772533i 
dram_util_bins: 0 0 0 0 0 0 0 0 0 0
dram_eff_bins: 0 0 0 0 0 0 0 0 0 0
mrqq: max=57 avg=0.0449195
Memory Partition 6: 
Cache L2_bank_012:
MSHR contents

Cache L2_bank_013:
MSHR contents

In Dram Latency Queue (total = 0): 
DRAM[6]: 16 bks, busW=4 BL=8 CL=12, tRRD=2 tCCD=6, tRCD=12 tRAS=28 tRP=12 tRC=40
n_cmd=11792884 n_nop=11730212 n_act=5278 n_pre=5262 n_req=17365 n_rd=28296 n_write=23836 bw_util=0.008841
n_activity=201826 dram_eff=0.5166
bk0: 1808a 11775014i bk1: 1808a 11772312i bk2: 1820a 11774801i bk3: 1820a 11771845i bk4: 1740a 11775630i bk5: 1740a 11773008i bk6: 1728a 11776019i bk7: 1728a 11773514i bk8: 1728a 11776003i bk9: 1728a 11773696i bk10: 1740a 11776184i bk11: 1740a 11773829i bk12: 1788a 11775833i bk13: 1788a 11773262i bk14: 1796a 11775170i bk15: 1796a 11772349i 
dram_util_bins: 0 0 0 0 0 0 0 0 0 0
dram_eff_bins: 0 0 0 0 0 0 0 0 0 0
mrqq: max=60 avg=0.0449922
Memory Partition 7: 
Cache L2_bank_014:
MSHR contents

Cache L2_bank_015:
MSHR contents

In Dram Latency Queue (total = 0): 
DRAM[7]: 16 bks, busW=4 BL=8 CL=12, tRRD=2 tCCD=6, tRCD=12 tRAS=28 tRP=12 tRC=40
n_cmd=11792884 n_nop=11730213 n_act=5271 n_pre=5255 n_req=17369 n_rd=28296 n_write=23849 bw_util=0.008843
n_activity=202131 dram_eff=0.516
bk0: 1812a 11774904i bk1: 1812a 11772349i bk2: 1820a 11774787i bk3: 1820a 11772116i bk4: 1740a 11775476i bk5: 1740a 11773025i bk6: 1728a 11776071i bk7: 1728a 11773589i bk8: 1728a 11776023i bk9: 1728a 11773631i bk10: 1740a 11776167i bk11: 1740a 11773519i bk12: 1788a 11776140i bk13: 1788a 11773255i bk14: 1792a 11775144i bk15: 1792a 11772157i 
dram_util_bins: 0 0 0 0 0 0 0 0 0 0
dram_eff_bins: 0 0 0 0 0 0 0 0 0 0
mrqq: max=53 avg=0.0450976
Memory Partition 8: 
Cache L2_bank_016:
MSHR contents

Cache L2_bank_017:
MSHR contents

In Dram Latency Queue (total = 0): 
DRAM[8]: 16 bks, busW=4 BL=8 CL=12, tRRD=2 tCCD=6, tRCD=12 tRAS=28 tRP=12 tRC=40
n_cmd=11792884 n_nop=11730157 n_act=5259 n_pre=5243 n_req=17452 n_rd=28304 n_write=23921 bw_util=0.008857
n_activity=202039 dram_eff=0.517
bk0: 1812a 11774975i bk1: 1812a 11772254i bk2: 1820a 11774735i bk3: 1820a 11771965i bk4: 1740a 11775531i bk5: 1740a 11772953i bk6: 1728a 11776140i bk7: 1728a 11773536i bk8: 1728a 11776166i bk9: 1728a 11773648i bk10: 1740a 11776318i bk11: 1740a 11773869i bk12: 1792a 11775710i bk13: 1792a 11773090i bk14: 1792a 11775322i bk15: 1792a 11772372i 
dram_util_bins: 0 0 0 0 0 0 0 0 0 0
dram_eff_bins: 0 0 0 0 0 0 0 0 0 0
mrqq: max=57 avg=0.0452017
Memory Partition 9: 
Cache L2_bank_018:
MSHR contents

Cache L2_bank_019:
MSHR contents

In Dram Latency Queue (total = 0): 
DRAM[9]: 16 bks, busW=4 BL=8 CL=12, tRRD=2 tCCD=6, tRCD=12 tRAS=28 tRP=12 tRC=40
n_cmd=11792884 n_nop=11730214 n_act=5255 n_pre=5239 n_req=17400 n_rd=28304 n_write=23872 bw_util=0.008849
n_activity=202485 dram_eff=0.5154
bk0: 1812a 11775083i bk1: 1812a 11772275i bk2: 1820a 11774851i bk3: 1820a 11771913i bk4: 1740a 11775645i bk5: 1740a 11773108i bk6: 1728a 11776203i bk7: 1728a 11773616i bk8: 1728a 11776099i bk9: 1728a 11773577i bk10: 1740a 11776124i bk11: 1740a 11773712i bk12: 1792a 11775767i bk13: 1792a 11772995i bk14: 1792a 11775320i bk15: 1792a 11772535i 
dram_util_bins: 0 0 0 0 0 0 0 0 0 0
dram_eff_bins: 0 0 0 0 0 0 0 0 0 0
mrqq: max=61 avg=0.0453697
Memory Partition 10: 
[...]
F: 19090151----T: 19092756 	 St: c118e000 Sz: 4096 	 Sm: 0 	 T: memcpy_h2d(1.758947)
F: 19092756----T: 19095361 	 St: c118f000 Sz: 4096 	 Sm: 0 	 T: memcpy_h2d(1.758947)
F: 19095361----T: 19097966 	 St: c1190000 Sz: 4096 	 Sm: 0 	 T: memcpy_h2d(1.758947)
F: 19097966----T: 19100571 	 St: c1191000 Sz: 4096 	 Sm: 0 	 T: memcpy_h2d(1.758947)
F: 19104029----T: 19106634 	 St: c1a2f000 Sz: 4096 	 Sm: 0 	 T: memcpy_h2d(1.758947)
F: 19106634----T: 19109239 	 St: c1a28000 Sz: 4096 	 Sm: 0 	 T: memcpy_h2d(1.758947)
F: 19109239----T: 19111844 	 St: c1a37000 Sz: 4096 	 Sm: 0 	 T: memcpy_h2d(1.758947)
F: 19111844----T: 19114449 	 St: c1a30000 Sz: 4096 	 Sm: 0 	 T: memcpy_h2d(1.758947)
F: 19114449----T: 19117054 	 St: c1a22000 Sz: 4096 	 Sm: 0 	 T: memcpy_h2d(1.758947)
F: 19117054----T: 19119659 	 St: c1a23000 Sz: 4096 	 Sm: 0 	 T: memcpy_h2d(1.758947)
F: 19119659----T: 19122264 	 St: c1a24000 Sz: 4096 	 Sm: 0 	 T: memcpy_h2d(1.758947)
F: 19122264----T: 19124869 	 St: c1a25000 Sz: 4096 	 Sm: 0 	 T: memcpy_h2d(1.758947)
F: 19124869----T: 19127474 	 St: c1a26000 Sz: 4096 	 Sm: 0 	 T: memcpy_h2d(1.758947)
F: 19127474----T: 19130079 	 St: c1a2b000 Sz: 4096 	 Sm: 0 	 T: memcpy_h2d(1.758947)
F: 19130079----T: 19132684 	 St: c1a2c000 Sz: 4096 	 Sm: 0 	 T: memcpy_h2d(1.758947)
F: 19132684----T: 19135289 	 St: c1a27000 Sz: 4096 	 Sm: 0 	 T: memcpy_h2d(1.758947)
F: 19135289----T: 19137894 	 St: c1a3e000 Sz: 4096 	 Sm: 0 	 T: memcpy_h2d(1.758947)
F: 19137894----T: 19140499 	 St: c1a2d000 Sz: 4096 	 Sm: 0 	 T: memcpy_h2d(1.758947)
F: 19140499----T: 19143104 	 St: c1a2a000 Sz: 4096 	 Sm: 0 	 T: memcpy_h2d(1.758947)
F: 19143104----T: 19145709 	 St: c1a29000 Sz: 4096 	 Sm: 0 	 T: memcpy_h2d(1.758947)
F: 19145709----T: 19148314 	 St: c1a31000 Sz: 4096 	 Sm: 0 	 T: memcpy_h2d(1.758947)
F: 19148314----T: 19150919 	 St: c1a32000 Sz: 4096 	 Sm: 0 	 T: memcpy_h2d(1.758947)
F: 19150919----T: 19153524 	 St: c1a33000 Sz: 4096 	 Sm: 0 	 T: memcpy_h2d(1.758947)
F: 19153524----T: 19156129 	 St: c1a39000 Sz: 4096 	 Sm: 0 	 T: memcpy_h2d(1.758947)
F: 19156129----T: 19158734 	 St: c1a34000 Sz: 4096 	 Sm: 0 	 T: memcpy_h2d(1.758947)
F: 19158734----T: 19161339 	 St: c1a38000 Sz: 4096 	 Sm: 0 	 T: memcpy_h2d(1.758947)
F: 19161339----T: 19163944 	 St: c1a46000 Sz: 4096 	 Sm: 0 	 T: memcpy_h2d(1.758947)
F: 19163944----T: 19166549 	 St: c1a2e000 Sz: 4096 	 Sm: 0 	 T: memcpy_h2d(1.758947)
F: 19166549----T: 19169154 	 St: c1a3b000 Sz: 4096 	 Sm: 0 	 T: memcpy_h2d(1.758947)
F: 19169154----T: 19171759 	 St: c1a3a000 Sz: 4096 	 Sm: 0 	 T: memcpy_h2d(1.758947)
F: 19171759----T: 19174364 	 St: c1a45000 Sz: 4096 	 Sm: 0 	 T: memcpy_h2d(1.758947)
F: 19174364----T: 19176969 	 St: c1a35000 Sz: 4096 	 Sm: 0 	 T: memcpy_h2d(1.758947)
F: 19176969----T: 19179574 	 St: c1a36000 Sz: 4096 	 Sm: 0 	 T: memcpy_h2d(1.758947)
F: 19179574----T: 19182179 	 St: c1a3c000 Sz: 4096 	 Sm: 0 	 T: memcpy_h2d(1.758947)
F: 19182179----T: 19184784 	 St: c1a3d000 Sz: 4096 	 Sm: 0 	 T: memcpy_h2d(1.758947)
F: 19184784----T: 19187389 	 St: c1a3f000 Sz: 4096 	 Sm: 0 	 T: memcpy_h2d(1.758947)
F: 19187389----T: 19189994 	 St: c1a40000 Sz: 4096 	 Sm: 0 	 T: memcpy_h2d(1.758947)
F: 19189994----T: 19192599 	 St: c1a41000 Sz: 4096 	 Sm: 0 	 T: memcpy_h2d(1.758947)
F: 19192599----T: 19195204 	 St: c1a43000 Sz: 4096 	 Sm: 0 	 T: memcpy_h2d(1.758947)
F: 19195204----T: 19197809 	 St: c1a4a000 Sz: 4096 	 Sm: 0 	 T: memcpy_h2d(1.758947)
F: 19197809----T: 19200414 	 St: c1a4b000 Sz: 4096 	 Sm: 0 	 T: memcpy_h2d(1.758947)
F: 19200414----T: 19203019 	 St: c1a42000 Sz: 4096 	 Sm: 0 	 T: memcpy_h2d(1.758947)
F: 19203019----T: 19205624 	 St: c1a44000 Sz: 4096 	 Sm: 0 	 T: memcpy_h2d(1.758947)
F: 19205624----T: 19208229 	 St: c1a47000 Sz: 4096 	 Sm: 0 	 T: memcpy_h2d(1.758947)
F: 19208229----T: 19210834 	 St: c1a49000 Sz: 4096 	 Sm: 0 	 T: memcpy_h2d(1.758947)
F: 19210834----T: 19213439 	 St: c1a4c000 Sz: 4096 	 Sm: 0 	 T: memcpy_h2d(1.758947)
F: 19213439----T: 19216044 	 St: c1a4d000 Sz: 4096 	 Sm: 0 	 T: memcpy_h2d(1.758947)
F: 19216044----T: 19218649 	 St: c1a50000 Sz: 4096 	 Sm: 0 	 T: memcpy_h2d(1.758947)
F: 19218649----T: 19221254 	 St: c1a48000 Sz: 4096 	 Sm: 0 	 T: memcpy_h2d(1.758947)
F: 19221254----T: 19223859 	 St: c1a4f000 Sz: 4096 	 Sm: 0 	 T: memcpy_h2d(1.758947)
F: 19223859----T: 19226464 	 St: c1a57000 Sz: 4096 	 Sm: 0 	 T: memcpy_h2d(1.758947)
F: 19226464----T: 19229069 	 St: c1a56000 Sz: 4096 	 Sm: 0 	 T: memcpy_h2d(1.758947)
F: 19229069----T: 19231674 	 St: c1a4e000 Sz: 4096 	 Sm: 0 	 T: memcpy_h2d(1.758947)
F: 19231674----T: 19234279 	 St: c1a51000 Sz: 4096 	 Sm: 0 	 T: memcpy_h2d(1.758947)
F: 19234279----T: 19236884 	 St: c1a52000 Sz: 4096 	 Sm: 0 	 T: memcpy_h2d(1.758947)
F: 19236884----T: 19239489 	 St: c1a58000 Sz: 4096 	 Sm: 0 	 T: memcpy_h2d(1.758947)
F: 19239489----T: 19242094 	 St: c1a53000 Sz: 4096 	 Sm: 0 	 T: memcpy_h2d(1.758947)
F: 19242094----T: 19244699 	 St: c1a54000 Sz: 4096 	 Sm: 0 	 T: memcpy_h2d(1.758947)
F: 19244699----T: 19247304 	 St: c1a55000 Sz: 4096 	 Sm: 0 	 T: memcpy_h2d(1.758947)
F: 19247304----T: 19249909 	 St: c119f000 Sz: 4096 	 Sm: 0 	 T: memcpy_h2d(1.758947)
F: 19249909----T: 19252514 	 St: c1a59000 Sz: 4096 	 Sm: 0 	 T: memcpy_h2d(1.758947)
F: 19252514----T: 19255119 	 St: c1a5a000 Sz: 4096 	 Sm: 0 	 T: memcpy_h2d(1.758947)
F: 19255119----T: 19257724 	 St: c1a5b000 Sz: 4096 	 Sm: 0 	 T: memcpy_h2d(1.758947)
F: 19257724----T: 19260329 	 St: c1a5c000 Sz: 4096 	 Sm: 0 	 T: memcpy_h2d(1.758947)
F: 19260329----T: 19262934 	 St: c1198000 Sz: 4096 	 Sm: 0 	 T: memcpy_h2d(1.758947)
F: 19262934----T: 19265539 	 St: c11a7000 Sz: 4096 	 Sm: 0 	 T: memcpy_h2d(1.758947)
F: 19265539----T: 19268144 	 St: c11a0000 Sz: 4096 	 Sm: 0 	 T: memcpy_h2d(1.758947)
F: 19268144----T: 19270749 	 St: c1192000 Sz: 4096 	 Sm: 0 	 T: memcpy_h2d(1.758947)
F: 19270749----T: 19273354 	 St: c1193000 Sz: 4096 	 Sm: 0 	 T: memcpy_h2d(1.758947)
F: 19273354----T: 19275959 	 St: c1194000 Sz: 4096 	 Sm: 0 	 T: memcpy_h2d(1.758947)
F: 19275959----T: 19278564 	 St: c1195000 Sz: 4096 	 Sm: 0 	 T: memcpy_h2d(1.758947)
F: 19278564----T: 19281169 	 St: c1196000 Sz: 4096 	 Sm: 0 	 T: memcpy_h2d(1.758947)
F: 19281169----T: 19283774 	 St: c119b000 Sz: 4096 	 Sm: 0 	 T: memcpy_h2d(1.758947)
F: 19283774----T: 19286379 	 St: c119c000 Sz: 4096 	 Sm: 0 	 T: memcpy_h2d(1.758947)
F: 19286379----T: 19288984 	 St: c1197000 Sz: 4096 	 Sm: 0 	 T: memcpy_h2d(1.758947)
F: 19288984----T: 19291589 	 St: c11ae000 Sz: 4096 	 Sm: 0 	 T: memcpy_h2d(1.758947)
F: 19291589----T: 19294194 	 St: c119d000 Sz: 4096 	 Sm: 0 	 T: memcpy_h2d(1.758947)
F: 19294194----T: 19296799 	 St: c119a000 Sz: 4096 	 Sm: 0 	 T: memcpy_h2d(1.758947)
F: 19296799----T: 19299404 	 St: c1199000 Sz: 4096 	 Sm: 0 	 T: memcpy_h2d(1.758947)
F: 19299404----T: 19302009 	 St: c11a1000 Sz: 4096 	 Sm: 0 	 T: memcpy_h2d(1.758947)
F: 19302009----T: 19304614 	 St: c11a2000 Sz: 4096 	 Sm: 0 	 T: memcpy_h2d(1.758947)
F: 19304614----T: 19307219 	 St: c11a3000 Sz: 4096 	 Sm: 0 	 T: memcpy_h2d(1.758947)
F: 19307219----T: 19309824 	 St: c11a9000 Sz: 4096 	 Sm: 0 	 T: memcpy_h2d(1.758947)
F: 19309824----T: 19312429 	 St: c11a4000 Sz: 4096 	 Sm: 0 	 T: memcpy_h2d(1.758947)
F: 19312429----T: 19315034 	 St: c11a8000 Sz: 4096 	 Sm: 0 	 T: memcpy_h2d(1.758947)
F: 19315034----T: 19317639 	 St: c11b6000 Sz: 4096 	 Sm: 0 	 T: memcpy_h2d(1.758947)
F: 19317639----T: 19320244 	 St: c119e000 Sz: 4096 	 Sm: 0 	 T: memcpy_h2d(1.758947)
F: 19320244----T: 19322849 	 St: c11ab000 Sz: 4096 	 Sm: 0 	 T: memcpy_h2d(1.758947)
F: 19322849----T: 19325454 	 St: c11aa000 Sz: 4096 	 Sm: 0 	 T: memcpy_h2d(1.758947)
F: 19325454----T: 19328059 	 St: c11b5000 Sz: 4096 	 Sm: 0 	 T: memcpy_h2d(1.758947)
F: 19328059----T: 19330664 	 St: c11a5000 Sz: 4096 	 Sm: 0 	 T: memcpy_h2d(1.758947)
F: 19330664----T: 19333269 	 St: c11a6000 Sz: 4096 	 Sm: 0 	 T: memcpy_h2d(1.758947)
F: 19333269----T: 19335874 	 St: c11ac000 Sz: 4096 	 Sm: 0 	 T: memcpy_h2d(1.758947)
F: 19335874----T: 19338479 	 St: c11ad000 Sz: 4096 	 Sm: 0 	 T: memcpy_h2d(1.758947)
F: 19338479----T: 19341084 	 St: c11af000 Sz: 4096 	 Sm: 0 	 T: memcpy_h2d(1.758947)
F: 19341084----T: 19343689 	 St: c11b0000 Sz: 4096 	 Sm: 0 	 T: memcpy_h2d(1.758947)
F: 19343689----T: 19346294 	 St: c11b1000 Sz: 4096 	 Sm: 0 	 T: memcpy_h2d(1.758947)
F: 19346294----T: 19348899 	 St: c11b3000 Sz: 4096 	 Sm: 0 	 T: memcpy_h2d(1.758947)
F: 19348899----T: 19351504 	 St: c11ba000 Sz: 4096 	 Sm: 0 	 T: memcpy_h2d(1.758947)
F: 19351504----T: 19354109 	 St: c11bb000 Sz: 4096 	 Sm: 0 	 T: memcpy_h2d(1.758947)
F: 19354109----T: 19356714 	 St: c11b2000 Sz: 4096 	 Sm: 0 	 T: memcpy_h2d(1.758947)
F: 19356714----T: 19359319 	 St: c11b4000 Sz: 4096 	 Sm: 0 	 T: memcpy_h2d(1.758947)
F: 19359319----T: 19361924 	 St: c11b7000 Sz: 4096 	 Sm: 0 	 T: memcpy_h2d(1.758947)
F: 19361924----T: 19364529 	 St: c11b9000 Sz: 4096 	 Sm: 0 	 T: memcpy_h2d(1.758947)
F: 19364529----T: 19367134 	 St: c11bc000 Sz: 4096 	 Sm: 0 	 T: memcpy_h2d(1.758947)
F: 19367134----T: 19369739 	 St: c11bd000 Sz: 4096 	 Sm: 0 	 T: memcpy_h2d(1.758947)
F: 19369739----T: 19372344 	 St: c11c0000 Sz: 4096 	 Sm: 0 	 T: memcpy_h2d(1.758947)
F: 19372344----T: 19374949 	 St: c11b8000 Sz: 4096 	 Sm: 0 	 T: memcpy_h2d(1.758947)
F: 19374949----T: 19377554 	 St: c11bf000 Sz: 4096 	 Sm: 0 	 T: memcpy_h2d(1.758947)
F: 19377554----T: 19380159 	 St: c11c7000 Sz: 4096 	 Sm: 0 	 T: memcpy_h2d(1.758947)
F: 19380159----T: 19382764 	 St: c11c6000 Sz: 4096 	 Sm: 0 	 T: memcpy_h2d(1.758947)
F: 19382764----T: 19385369 	 St: c11be000 Sz: 4096 	 Sm: 0 	 T: memcpy_h2d(1.758947)
F: 19385369----T: 19387974 	 St: c11c1000 Sz: 4096 	 Sm: 0 	 T: memcpy_h2d(1.758947)
F: 19387974----T: 19390579 	 St: c11c2000 Sz: 4096 	 Sm: 0 	 T: memcpy_h2d(1.758947)
F: 19390579----T: 19393184 	 St: c11c8000 Sz: 4096 	 Sm: 0 	 T: memcpy_h2d(1.758947)
F: 19393184----T: 19395789 	 St: c11c3000 Sz: 4096 	 Sm: 0 	 T: memcpy_h2d(1.758947)
F: 19395789----T: 19398394 	 St: c11c4000 Sz: 4096 	 Sm: 0 	 T: memcpy_h2d(1.758947)
F: 19398394----T: 19400999 	 St: c11c5000 Sz: 4096 	 Sm: 0 	 T: memcpy_h2d(1.758947)
F: 19400999----T: 19403604 	 St: c11c9000 Sz: 4096 	 Sm: 0 	 T: memcpy_h2d(1.758947)
F: 19403604----T: 19406209 	 St: c11ca000 Sz: 4096 	 Sm: 0 	 T: memcpy_h2d(1.758947)
F: 19406209----T: 19408814 	 St: c11cb000 Sz: 4096 	 Sm: 0 	 T: memcpy_h2d(1.758947)
F: 19408814----T: 19411419 	 St: c11cc000 Sz: 4096 	 Sm: 0 	 T: memcpy_h2d(1.758947)
F: 19412069----T: 19414674 	 St: c1a5d000 Sz: 4096 	 Sm: 0 	 T: memcpy_h2d(1.758947)
F: 19414674----T: 19417279 	 St: c1a5e000 Sz: 4096 	 Sm: 0 	 T: memcpy_h2d(1.758947)
F: 19417279----T: 19419884 	 St: c1a5f000 Sz: 4096 	 Sm: 0 	 T: memcpy_h2d(1.758947)
F: 19419884----T: 19422489 	 St: c11cd000 Sz: 4096 	 Sm: 0 	 T: memcpy_h2d(1.758947)
F: 19422489----T: 19425094 	 St: c11ce000 Sz: 4096 	 Sm: 0 	 T: memcpy_h2d(1.758947)
F: 19425094----T: 19427699 	 St: c11cf000 Sz: 4096 	 Sm: 0 	 T: memcpy_h2d(1.758947)
F: 19428684----T: 19431289 	 St: 0 Sz: 4096 	 Sm: 0 	 T: device_sync(1.758947)
F: 19428684----T: 19436924 	 St: 0 Sz: 61440 	 Sm: 0 	 T: device_sync(5.563808)
F: 19439529----T: 19442134 	 St: 0 Sz: 4096 	 Sm: 0 	 T: device_sync(1.758947)
F: 19439529----T: 19447769 	 St: 0 Sz: 61440 	 Sm: 0 	 T: device_sync(5.563808)
F: 19450374----T: 19452979 	 St: 0 Sz: 4096 	 Sm: 0 	 T: device_sync(1.758947)
F: 19450374----T: 19466069 	 St: 0 Sz: 126976 	 Sm: 0 	 T: device_sync(10.597569)
F: 19468674----T: 19471279 	 St: 0 Sz: 4096 	 Sm: 0 	 T: device_sync(1.758947)
F: 19468674----T: 19499397 	 St: 0 Sz: 258048 	 Sm: 0 	 T: device_sync(20.744766)
F: 19502002----T: 19504607 	 St: 0 Sz: 4096 	 Sm: 0 	 T: device_sync(1.758947)
F: 19502002----T: 19562838 	 St: 0 Sz: 520192 	 Sm: 0 	 T: device_sync(41.077652)
F: 19565443----T: 19568048 	 St: 0 Sz: 4096 	 Sm: 0 	 T: device_sync(1.758947)
F: 19565443----T: 19686532 	 St: 0 Sz: 1044480 	 Sm: 0 	 T: device_sync(81.761650)
F: 19689137----T: 19691742 	 St: 0 Sz: 4096 	 Sm: 0 	 T: device_sync(1.758947)
F: 19689137----T: 19697377 	 St: 0 Sz: 61440 	 Sm: 0 	 T: device_sync(5.563808)
F: 19699982----T: 19702587 	 St: 0 Sz: 4096 	 Sm: 0 	 T: device_sync(1.758947)
F: 19699982----T: 19708222 	 St: 0 Sz: 61440 	 Sm: 0 	 T: device_sync(5.563808)
F: 19710827----T: 19713432 	 St: 0 Sz: 4096 	 Sm: 0 	 T: device_sync(1.758947)
F: 19710827----T: 19726522 	 St: 0 Sz: 126976 	 Sm: 0 	 T: device_sync(10.597569)
F: 19729127----T: 19731732 	 St: 0 Sz: 4096 	 Sm: 0 	 T: device_sync(1.758947)
F: 19729127----T: 19759850 	 St: 0 Sz: 258048 	 Sm: 0 	 T: device_sync(20.744766)
F: 19762455----T: 19765060 	 St: 0 Sz: 4096 	 Sm: 0 	 T: device_sync(1.758947)
F: 19762455----T: 19823291 	 St: 0 Sz: 520192 	 Sm: 0 	 T: device_sync(41.077652)
F: 19825896----T: 19828501 	 St: 0 Sz: 4096 	 Sm: 0 	 T: device_sync(1.758947)
F: 19825896----T: 19946985 	 St: 0 Sz: 1044480 	 Sm: 0 	 T: device_sync(81.761650)
F: 19949590----T: 19952195 	 St: 0 Sz: 4096 	 Sm: 0 	 T: device_sync(1.758947)
F: 19949590----T: 19957830 	 St: 0 Sz: 61440 	 Sm: 0 	 T: device_sync(5.563808)
F: 19960435----T: 19963040 	 St: 0 Sz: 4096 	 Sm: 0 	 T: device_sync(1.758947)
F: 19960435----T: 19968675 	 St: 0 Sz: 61440 	 Sm: 0 	 T: device_sync(5.563808)
F: 19971280----T: 19973885 	 St: 0 Sz: 4096 	 Sm: 0 	 T: device_sync(1.758947)
F: 19971280----T: 19986975 	 St: 0 Sz: 126976 	 Sm: 0 	 T: device_sync(10.597569)
F: 19989580----T: 19992185 	 St: 0 Sz: 4096 	 Sm: 0 	 T: device_sync(1.758947)
F: 19989580----T: 20020303 	 St: 0 Sz: 258048 	 Sm: 0 	 T: device_sync(20.744766)
F: 20022908----T: 20025513 	 St: 0 Sz: 4096 	 Sm: 0 	 T: device_sync(1.758947)
F: 20022908----T: 20083744 	 St: 0 Sz: 520192 	 Sm: 0 	 T: device_sync(41.077652)
F: 20086349----T: 20088954 	 St: 0 Sz: 4096 	 Sm: 0 	 T: device_sync(1.758947)
F: 20086349----T: 20207438 	 St: 0 Sz: 1044480 	 Sm: 0 	 T: device_sync(81.761650)
F: 20210043----T: 20212648 	 St: 0 Sz: 4096 	 Sm: 0 	 T: device_sync(1.758947)
F: 20210043----T: 20218283 	 St: 0 Sz: 61440 	 Sm: 0 	 T: device_sync(5.563808)
F: 20220888----T: 20223493 	 St: 0 Sz: 4096 	 Sm: 0 	 T: device_sync(1.758947)
F: 20220888----T: 20229128 	 St: 0 Sz: 61440 	 Sm: 0 	 T: device_sync(5.563808)
F: 20231733----T: 20234338 	 St: 0 Sz: 4096 	 Sm: 0 	 T: device_sync(1.758947)
F: 20231733----T: 20247428 	 St: 0 Sz: 126976 	 Sm: 0 	 T: device_sync(10.597569)
F: 20250033----T: 20252638 	 St: 0 Sz: 4096 	 Sm: 0 	 T: device_sync(1.758947)
F: 20250033----T: 20280756 	 St: 0 Sz: 258048 	 Sm: 0 	 T: device_sync(20.744766)
F: 20283361----T: 20285966 	 St: 0 Sz: 4096 	 Sm: 0 	 T: device_sync(1.758947)
F: 20283361----T: 20344197 	 St: 0 Sz: 520192 	 Sm: 0 	 T: device_sync(41.077652)
F: 20346802----T: 20349407 	 St: 0 Sz: 4096 	 Sm: 0 	 T: device_sync(1.758947)
F: 20346802----T: 20467891 	 St: 0 Sz: 1044480 	 Sm: 0 	 T: device_sync(81.761650)
F: 20470496----T: 20473101 	 St: 0 Sz: 4096 	 Sm: 0 	 T: device_sync(1.758947)
F: 20470496----T: 20478736 	 St: 0 Sz: 61440 	 Sm: 0 	 T: device_sync(5.563808)
F: 20481341----T: 20483946 	 St: 0 Sz: 4096 	 Sm: 0 	 T: device_sync(1.758947)
F: 20481341----T: 20489581 	 St: 0 Sz: 61440 	 Sm: 0 	 T: device_sync(5.563808)
F: 20492186----T: 20494791 	 St: 0 Sz: 4096 	 Sm: 0 	 T: device_sync(1.758947)
F: 20492186----T: 20507881 	 St: 0 Sz: 126976 	 Sm: 0 	 T: device_sync(10.597569)
F: 20510486----T: 20513091 	 St: 0 Sz: 4096 	 Sm: 0 	 T: device_sync(1.758947)
F: 20510486----T: 20541209 	 St: 0 Sz: 258048 	 Sm: 0 	 T: device_sync(20.744766)
F: 20543814----T: 20546419 	 St: 0 Sz: 4096 	 Sm: 0 	 T: device_sync(1.758947)
F: 20543814----T: 20604650 	 St: 0 Sz: 520192 	 Sm: 0 	 T: device_sync(41.077652)
F: 20607255----T: 20609860 	 St: 0 Sz: 4096 	 Sm: 0 	 T: device_sync(1.758947)
F: 20607255----T: 20728344 	 St: 0 Sz: 1044480 	 Sm: 0 	 T: device_sync(81.761650)
F: 20730949----T: 20733554 	 St: 0 Sz: 4096 	 Sm: 0 	 T: device_sync(1.758947)
F: 20730949----T: 20739189 	 St: 0 Sz: 61440 	 Sm: 0 	 T: device_sync(5.563808)
F: 20741794----T: 20744399 	 St: 0 Sz: 4096 	 Sm: 0 	 T: device_sync(1.758947)
F: 20741794----T: 20750034 	 St: 0 Sz: 61440 	 Sm: 0 	 T: device_sync(5.563808)
F: 20752639----T: 20755244 	 St: 0 Sz: 4096 	 Sm: 0 	 T: device_sync(1.758947)
F: 20752639----T: 20768334 	 St: 0 Sz: 126976 	 Sm: 0 	 T: device_sync(10.597569)
F: 20770939----T: 20773544 	 St: 0 Sz: 4096 	 Sm: 0 	 T: device_sync(1.758947)
F: 20770939----T: 20801662 	 St: 0 Sz: 258048 	 Sm: 0 	 T: device_sync(20.744766)
F: 20804267----T: 20806872 	 St: 0 Sz: 4096 	 Sm: 0 	 T: device_sync(1.758947)
F: 20804267----T: 20865103 	 St: 0 Sz: 520192 	 Sm: 0 	 T: device_sync(41.077652)
F: 20867708----T: 20870313 	 St: 0 Sz: 4096 	 Sm: 0 	 T: device_sync(1.758947)
F: 20867708----T: 20988797 	 St: 0 Sz: 1044480 	 Sm: 0 	 T: device_sync(81.761650)
F: 20991402----T: 20994007 	 St: 0 Sz: 4096 	 Sm: 0 	 T: device_sync(1.758947)
F: 20991402----T: 20999642 	 St: 0 Sz: 61440 	 Sm: 0 	 T: device_sync(5.563808)
F: 21002247----T: 21004852 	 St: 0 Sz: 4096 	 Sm: 0 	 T: device_sync(1.758947)
F: 21002247----T: 21010487 	 St: 0 Sz: 61440 	 Sm: 0 	 T: device_sync(5.563808)
F: 21013092----T: 21015697 	 St: 0 Sz: 4096 	 Sm: 0 	 T: device_sync(1.758947)
F: 21013092----T: 21028787 	 St: 0 Sz: 126976 	 Sm: 0 	 T: device_sync(10.597569)
F: 21031392----T: 21033997 	 St: 0 Sz: 4096 	 Sm: 0 	 T: device_sync(1.758947)
F: 21031392----T: 21062115 	 St: 0 Sz: 258048 	 Sm: 0 	 T: device_sync(20.744766)
F: 21064720----T: 21067325 	 St: 0 Sz: 4096 	 Sm: 0 	 T: device_sync(1.758947)
F: 21064720----T: 21125556 	 St: 0 Sz: 520192 	 Sm: 0 	 T: device_sync(41.077652)
F: 21128161----T: 21130766 	 St: 0 Sz: 4096 	 Sm: 0 	 T: device_sync(1.758947)
F: 21128161----T: 21249250 	 St: 0 Sz: 1044480 	 Sm: 0 	 T: device_sync(81.761650)
F: 21251855----T: 21254460 	 St: 0 Sz: 4096 	 Sm: 0 	 T: device_sync(1.758947)
F: 21251855----T: 21260095 	 St: 0 Sz: 61440 	 Sm: 0 	 T: device_sync(5.563808)
F: 21262700----T: 21265305 	 St: 0 Sz: 4096 	 Sm: 0 	 T: device_sync(1.758947)
F: 21262700----T: 21270940 	 St: 0 Sz: 61440 	 Sm: 0 	 T: device_sync(5.563808)
F: 21273545----T: 21276150 	 St: 0 Sz: 4096 	 Sm: 0 	 T: device_sync(1.758947)
F: 21273545----T: 21289240 	 St: 0 Sz: 126976 	 Sm: 0 	 T: device_sync(10.597569)
F: 21291845----T: 21294450 	 St: 0 Sz: 4096 	 Sm: 0 	 T: device_sync(1.758947)
F: 21291845----T: 21322568 	 St: 0 Sz: 258048 	 Sm: 0 	 T: device_sync(20.744766)
F: 21325173----T: 21327778 	 St: 0 Sz: 4096 	 Sm: 0 	 T: device_sync(1.758947)
F: 21325173----T: 21386009 	 St: 0 Sz: 520192 	 Sm: 0 	 T: device_sync(41.077652)
F: 21388614----T: 21391219 	 St: 0 Sz: 4096 	 Sm: 0 	 T: device_sync(1.758947)
F: 21388614----T: 21509703 	 St: 0 Sz: 1044480 	 Sm: 0 	 T: device_sync(81.761650)
F: 21512308----T: 21514913 	 St: 0 Sz: 4096 	 Sm: 0 	 T: device_sync(1.758947)
F: 21512308----T: 21520548 	 St: 0 Sz: 61440 	 Sm: 0 	 T: device_sync(5.563808)
F: 21523153----T: 21525758 	 St: 0 Sz: 4096 	 Sm: 0 	 T: device_sync(1.758947)
F: 21523153----T: 21531393 	 St: 0 Sz: 61440 	 Sm: 0 	 T: device_sync(5.563808)
F: 21533998----T: 21536603 	 St: 0 Sz: 4096 	 Sm: 0 	 T: device_sync(1.758947)
F: 21533998----T: 21549693 	 St: 0 Sz: 126976 	 Sm: 0 	 T: device_sync(10.597569)
F: 21552298----T: 21554903 	 St: 0 Sz: 4096 	 Sm: 0 	 T: device_sync(1.758947)
F: 21552298----T: 21583021 	 St: 0 Sz: 258048 	 Sm: 0 	 T: device_sync(20.744766)
F: 21585626----T: 21588231 	 St: 0 Sz: 4096 	 Sm: 0 	 T: device_sync(1.758947)
F: 21585626----T: 21646462 	 St: 0 Sz: 520192 	 Sm: 0 	 T: device_sync(41.077652)
Tot_prefetch_time: 0(cycle), 0.000000(us)
Tot_kernel_exec_time: 17805813(cycle), 12022.830078(us)
Tot_kernel_exec_time_and_fault_time: 469992138(cycle), 317347.812500(us)
Tot_memcpy_h2d_time: 17674925(cycle), 11934.452148(us)
Tot_memcpy_d2h_time: 0(cycle), 0.000000(us)
Tot_memcpy_time: 17674925(cycle), 11934.452148(us)
Tot_devicesync_time: 3398954(cycle), 2295.039795(us)
Tot_writeback_time: 0(cycle), 0.000000(us)
Tot_dma_time: 0(cycle), 0.000000(us)
Tot_memcpy_d2h_sync_wb_time: 3398954(cycle), 2295.039795(us)
GPGPU-Sim: *** exit detected ***
