

        *** GPGPU-Sim Simulator Version 3.2.2  [build gpgpu-sim_git-commit-1c1adf09f9d1bccf70ff97255c2b46b40ff0e800_modified_0] ***


GPGPU-Sim PTX: simulation mode 0 (can change with PTX_SIM_MODE_FUNC environment variable:
               1=functional simulation only, 0=detailed performance simulator)
GPGPU-Sim: Configuration options:

-network_mode                           1 # Interconnection network mode
-inter_config_file   config_fermi_islip.icnt # Interconnection network config file
-gpgpu_ptx_use_cuobjdump                    1 # Use cuobjdump to extract ptx and sass from binaries
-gpgpu_experimental_lib_support                    0 # Try to extract code from cuda libraries [Broken because of unknown cudaGetExportTable]
-gpgpu_ptx_convert_to_ptxplus                    0 # Convert SASS (native ISA) to ptxplus and run ptxplus
-gpgpu_ptx_force_max_capability                   20 # Force maximum compute capability
-gpgpu_ptx_inst_debug_to_file                    0 # Dump executed instructions' debug information to file
-gpgpu_ptx_inst_debug_file       inst_debug.txt # Executed instructions' debug output file
-gpgpu_ptx_inst_debug_thread_uid                    1 # Thread UID for executed instructions' debug output
-gpgpu_simd_model                       1 # 1 = post-dominator
-gpgpu_shader_core_pipeline              2048:32 # shader core pipeline config, i.e., {<nthread>:<warpsize>}
-gpgpu_tex_cache:l1  16:128:24,L:R:m:N:L,F:128:4,128:2 # per-shader L1 texture cache  (READ-ONLY) config  {<nsets>:<bsize>:<assoc>,<rep>:<wr>:<alloc>:<wr_alloc>,<mshr>:<N>:<merge>,<mq>:<rf>}
-gpgpu_const_cache:l1 128:64:2,L:R:f:N:L,A:2:64,4 # per-shader L1 constant memory cache  (READ-ONLY) config  {<nsets>:<bsize>:<assoc>,<rep>:<wr>:<alloc>:<wr_alloc>,<mshr>:<N>:<merge>,<mq>} 
-gpgpu_cache:il1     8:128:4,L:R:f:N:L,A:2:48,4 # shader L1 instruction cache config  {<nsets>:<bsize>:<assoc>,<rep>:<wr>:<alloc>:<wr_alloc>,<mshr>:<N>:<merge>,<mq>} 
-gpgpu_cache:dl1     64:128:6,L:L:m:N:H,A:128:8,8 # per-shader L1 data cache config  {<nsets>:<bsize>:<assoc>,<rep>:<wr>:<alloc>:<wr_alloc>,<mshr>:<N>:<merge>,<mq> | none}
-gpgpu_cache:dl1PrefL1                 none # per-shader L1 data cache config  {<nsets>:<bsize>:<assoc>,<rep>:<wr>:<alloc>:<wr_alloc>,<mshr>:<N>:<merge>,<mq> | none}
-gpgpu_cache:dl1PrefShared                 none # per-shader L1 data cache config  {<nsets>:<bsize>:<assoc>,<rep>:<wr>:<alloc>:<wr_alloc>,<mshr>:<N>:<merge>,<mq> | none}
-gmem_skip_L1D                          1 # global memory access skip L1D cache (implements -Xptxas -dlcm=cg, default=no skip)
-gpgpu_perfect_mem                      0 # enable perfect memory mode (no cache miss)
-n_regfile_gating_group                    4 # group of lanes that should be read/written together)
-gpgpu_clock_gated_reg_file                    0 # enable clock gated reg file for power calculations
-gpgpu_clock_gated_lanes                    0 # enable clock gated lanes for power calculations
-gpgpu_shader_registers                65536 # Number of registers per shader core. Limits number of concurrent CTAs. (default 8192)
-gpgpu_shader_cta                      32 # Maximum number of concurrent CTAs in shader (default 8)
-gpgpu_num_cta_barriers                   16 # Maximum number of named barriers per CTA (default 16)
-gpgpu_n_clusters                      28 # number of processing clusters
-gpgpu_n_cores_per_cluster                    1 # number of simd cores per cluster
-gpgpu_n_cluster_ejection_buffer_size                    8 # number of packets in ejection buffer
-gpgpu_n_ldst_response_buffer_size                    2 # number of response packets in ld/st unit ejection buffer
-gpgpu_shmem_size                   16384 # Size of shared memory per shader core (default 16kB)
-gpgpu_shmem_size                   98304 # Size of shared memory per shader core (default 16kB)
-gpgpu_shmem_size_PrefL1                16384 # Size of shared memory per shader core (default 16kB)
-gpgpu_shmem_size_PrefShared                16384 # Size of shared memory per shader core (default 16kB)
-gpgpu_shmem_num_banks                   32 # Number of banks in the shared memory in each shader core (default 16)
-gpgpu_shmem_limited_broadcast                    0 # Limit shared memory to do one broadcast per cycle (default on)
-gpgpu_shmem_warp_parts                    1 # Number of portions a warp is divided into for shared memory bank conflict check 
-gpgpu_warpdistro_shader                   -1 # Specify which shader core to collect the warp size distribution from
-gpgpu_warp_issue_shader                    0 # Specify which shader core to collect the warp issue distribution from
-gpgpu_local_mem_map                    1 # Mapping from local memory space address to simulated GPU physical address space (default = enabled)
-gpgpu_num_reg_banks                   32 # Number of register banks (default = 8)
-gpgpu_reg_bank_use_warp_id                    0 # Use warp ID in mapping registers to banks (default = off)
-gpgpu_operand_collector_num_units_sp                   20 # number of collector units (default = 4)
-gpgpu_operand_collector_num_units_sfu                    4 # number of collector units (default = 4)
-gpgpu_operand_collector_num_units_mem                    8 # number of collector units (default = 2)
-gpgpu_operand_collector_num_units_gen                    0 # number of collector units (default = 0)
-gpgpu_operand_collector_num_in_ports_sp                    4 # number of collector unit in ports (default = 1)
-gpgpu_operand_collector_num_in_ports_sfu                    1 # number of collector unit in ports (default = 1)
-gpgpu_operand_collector_num_in_ports_mem                    1 # number of collector unit in ports (default = 1)
-gpgpu_operand_collector_num_in_ports_gen                    0 # number of collector unit in ports (default = 0)
-gpgpu_operand_collector_num_out_ports_sp                    4 # number of collector unit in ports (default = 1)
-gpgpu_operand_collector_num_out_ports_sfu                    1 # number of collector unit in ports (default = 1)
-gpgpu_operand_collector_num_out_ports_mem                    1 # number of collector unit in ports (default = 1)
-gpgpu_operand_collector_num_out_ports_gen                    0 # number of collector unit in ports (default = 0)
-gpgpu_coalesce_arch                   13 # Coalescing arch (default = 13, anything else is off for now)
-gpgpu_num_sched_per_core                    2 # Number of warp schedulers per core
-gpgpu_max_insn_issue_per_warp                    2 # Max number of instructions that can be issued per warp in one cycle by scheduler
-gpgpu_simt_core_sim_order                    1 # Select the simulation order of cores in a cluster (0=Fix, 1=Round-Robin)
-gpgpu_pipeline_widths        4,1,1,4,1,1,6 # Pipeline widths ID_OC_SP,ID_OC_SFU,ID_OC_MEM,OC_EX_SP,OC_EX_SFU,OC_EX_MEM,EX_WB
-gpgpu_num_sp_units                     4 # Number of SP units (default=1)
-gpgpu_num_sfu_units                    1 # Number of SF units (default=1)
-gpgpu_num_mem_units                    1 # Number if ldst units (default=1) WARNING: not hooked up to anything
-gpgpu_scheduler                      gto # Scheduler configuration: < lrr | gto | two_level_active > If two_level_active:<num_active_warps>:<inner_prioritization>:<outer_prioritization>For complete list of prioritization values see shader.h enum scheduler_prioritization_typeDefault: gto
-gpgpu_concurrent_kernel_sm                    0 # Support concurrent kernels on a SM (default = disabled)
-tlb_size                            4096 # Number of tlb entries per SM.
-gpgpu_dram_scheduler                    1 # 0 = fifo, 1 = FR-FCFS (defaul)
-gpgpu_dram_partition_queues              8:8:8:8 # i2$:$2d:d2$:$2i
-l2_ideal                               0 # Use a ideal L2 cache that always hit
-gpgpu_cache:dl2     64:128:16,L:B:m:W:L,A:1024:1024,4:0,32 # unified banked L2 data cache config  {<nsets>:<bsize>:<assoc>,<rep>:<wr>:<alloc>:<wr_alloc>,<mshr>:<N>:<merge>,<mq>}
-gpgpu_cache:dl2_texture_only                    0 # L2 cache used for texture only
-gpgpu_n_mem                           11 # number of memory modules (e.g. memory controllers) in gpu
-gpgpu_n_sub_partition_per_mchannel                    2 # number of memory subpartition in each memory module
-gpgpu_n_mem_per_ctrlr                    1 # number of memory chips per memory controller
-gpgpu_memlatency_stat                   14 # track and display latency statistics 0x2 enables MC, 0x4 enables queue logs
-gpgpu_frfcfs_dram_sched_queue_size                   64 # 0 = unlimited (default); # entries per chip
-gpgpu_dram_return_queue_size                  116 # 0 = unlimited (default); # entries per chip
-gpgpu_dram_buswidth                    4 # default = 4 bytes (8 bytes per cycle at DDR)
-gpgpu_dram_burst_length                    8 # Burst length of each DRAM request (default = 4 data bus cycle)
-dram_data_command_freq_ratio                    4 # Frequency ratio between DRAM data bus and command bus (default = 2 times, i.e. DDR)
-gpgpu_dram_timing_opt nbk=16:CCD=2:RRD=6:RCD=12:RAS=28:RP=12:RC=40: CL=12:WL=4:CDLR=5:WR=12:nbkgrp=1:CCDL=0:RTPL=0 # DRAM timing parameters = {nbk:tCCD:tRRD:tRCD:tRAS:tRP:tRC:CL:WL:tCDLR:tWR:nbkgrp:tCCDL:tRTPL}
-rop_latency                          120 # ROP queue latency (default 85)
-dram_latency                         100 # DRAM latency (default 30)
-gpgpu_mem_addr_mapping dramid@8;00000000.00000000.00000000.00000000.0000RRRR.RRRRRRRR.RBBBCCCC.BCCSSSSS # mapping memory address to dram model {dramid@<start bit>;<memory address map>}
-gpgpu_mem_addr_test                    0 # run sweep test to check address mapping for aliased address
-gpgpu_mem_address_mask                    1 # 0 = old addressing mask, 1 = new addressing mask, 2 = new add. mask + flipped bank sel and chip sel bits
-gpuwattch_xml_file  gpuwattch_geforcegtx1080ti.xml # GPUWattch XML file
-power_simulation_enabled                    1 # Turn on power simulator (1=On, 0=Off)
-power_per_cycle_dump                    0 # Dump detailed power output each cycle
-power_trace_enabled                    0 # produce a file for the power trace (1=On, 0=Off)
-power_trace_zlevel                     6 # Compression level of the power trace output log (0=no comp, 9=highest)
-steady_power_levels_enabled                    0 # produce a file for the steady power levels (1=On, 0=Off)
-steady_state_definition                  8:4 # allowed deviation:number of samples
-gpgpu_max_cycle                        0 # terminates gpu simulation early (0 = no limit)
-gpgpu_max_insn                         0 # terminates gpu simulation early (0 = no limit)
-gpgpu_max_cta                          0 # terminates gpu simulation early (0 = no limit)
-gpgpu_runtime_stat                   500 # display runtime statistics such as dram utilization {<freq>:<flag>}
-liveness_message_freq                    1 # Minimum number of seconds between simulation liveness messages (0 = always print)
-gpgpu_flush_l1_cache                    0 # Flush L1 cache at the end of each kernel call
-gpgpu_flush_l2_cache                    0 # Flush L2 cache at the end of each kernel call
-gpgpu_deadlock_detect                    0 # Stop the simulation at deadlock (1=on (default), 0=off)
-gpgpu_ptx_instruction_classification                    0 # if enabled will classify ptx instruction types per kernel (Max 255 kernels now)
-gpgpu_ptx_sim_mode                     0 # Select between Performance (default) or Functional simulation (1)
-gpgpu_clock_domains 1481.0:2962.0:1481.0:2750.0 # Clock Domain Frequencies in MhZ {<Core Clock>:<ICNT Clock>:<L2 Clock>:<DRAM Clock>}
-gpgpu_max_concurrent_kernel                    8 # maximum kernels that can run concurrently on GPU
-gpgpu_cflog_interval                    0 # Interval between each snapshot in control flow logger
-visualizer_enabled                     0 # Turn on visualizer output (1=On, 0=Off)
-visualizer_outputfile                 NULL # Specifies the output log file for visualizer
-visualizer_zlevel                      6 # Compression level of the visualizer output log (0=no comp, 9=highest)
-trace_enabled                          0 # Turn on traces
-trace_components                    none # comma seperated list of traces to enable. Complete list found in trace_streams.tup. Default none
-trace_sampling_core                    0 # The core which is printed using CORE_DPRINTF. Default 0
-trace_sampling_memory_partition                   -1 # The memory partition which is printed using MEMPART_DPRINTF. Default -1 (i.e. all)
-gddr_size                            1GB # Size of GDDR in MB/GB.(GLOBAL_HEAP_START, GLOBAL_HEAP_START + gddr_size) would be used for unmanged memory, (GLOBAL_HEAP_START + gddr_size, GLOBAL_HEAP_START + gddr_size*2) would be used for managed memory. 
-page_table_walk_latency                  100 # Average page table walk latency (in core cycle).
-eviction_policy                        0 # Select page eviction policy
-invalidate_clean                       0 # Should directly invalidate clean pages
-reserve_accessed_page_percent                    0 # Percentage of accessed pages reserved from eviction in hope that they will be accessed in next iteration.
-percentage_of_free_page_buffer                    0 # Percentage of free page buffer to trigger the page eviction.
-page_size                            4KB # GDDR page size, only 4KB/2MB avaliable.
-pcie_bandwidth                  16.0GB/s # PCI-e bandwidth per direction, in GB/s.
-enable_dma                             0 # Enable direct access to CPU memory
-multiply_dma_penalty                    2 # Oversubscription Multiplicative Penalty Factor for Adaptive DMA
-migrate_threshold                      8 # Access counter threshold for migrating the page from cpu to gpu
-sim_prof_enable                        1 # Enable gpgpu-sim profiler
-hardware_prefetch                      0 # Select gpgpu-sim hardware prefetcher
-hwprefetch_oversub                     1 # Select gpgpu-sim hardware prefetcher under over-subscription
-page_fault_latency                 66645 # Average fault latency (in core cycle).
-enable_accurate_simulation                    0 # Enable page fault functional simulation.
-enable_ptx_file_line_stats                    1 # Turn on PTX source line statistic profiling. (1 = On)
-ptx_line_stats_filename gpgpu_inst_stats.txt # Output file for PTX source line statistics.
-gpgpu_kernel_launch_latency               222150 # Kernel launch latency in cycles. Default: 0
-gpgpu_cdp_enabled                      0 # Turn on CDP
-save_embedded_ptx                      0 # saves ptx files embedded in binary as <n>.ptx
-keep                                   0 # keep intermediate files created by GPGPU-Sim when interfacing with external programs
-gpgpu_ptx_save_converted_ptxplus                    0 # Saved converted ptxplus to a file
-ptx_opcode_latency_int         4,13,4,5,145 # Opcode latencies for integers <ADD,MAX,MUL,MAD,DIV>Default 1,1,19,25,145
-ptx_opcode_latency_fp          4,13,4,5,39 # Opcode latencies for single precision floating points <ADD,MAX,MUL,MAD,DIV>Default 1,1,1,1,30
-ptx_opcode_latency_dp         8,19,8,8,330 # Opcode latencies for double precision floating points <ADD,MAX,MUL,MAD,DIV>Default 8,8,8,8,335
-ptx_opcode_initiation_int            1,2,2,2,8 # Opcode initiation intervals for integers <ADD,MAX,MUL,MAD,DIV>Default 1,1,4,4,32
-ptx_opcode_initiation_fp            1,2,1,1,4 # Opcode initiation intervals for single precision floating points <ADD,MAX,MUL,MAD,DIV>Default 1,1,1,1,5
-ptx_opcode_initiation_dp          1,2,1,1,130 # Opcode initiation intervals for double precision floating points <ADD,MAX,MUL,MAD,DIV>Default 8,8,8,8,130
-cdp_latency         7200,8000,100,12000,1600 # CDP API latency <cudaStreamCreateWithFlags, cudaGetParameterBufferV2_init_perWarp, cudaGetParameterBufferV2_perKernel, cudaLaunchDeviceV2_init_perWarp, cudaLaunchDevicV2_perKernel>Default 7200,8000,100,12000,1600
DRAM Timing Options:
nbk                                    16 # number of banks
CCD                                     2 # column to column delay
RRD                                     6 # minimal delay between activation of rows in different banks
RCD                                    12 # row to column delay
RAS                                    28 # time needed to activate row
RP                                     12 # time needed to precharge (deactivate) row
RC                                     40 # row cycle time
CDLR                                    5 # switching from write to read (changes tWTR)
WR                                     12 # last data-in to row precharge
CL                                     12 # CAS latency
WL                                      4 # Write latency
nbkgrp                                  1 # number of bank groups
CCDL                                    0 # column to column delay between accesses to different bank groups
RTPL                                    0 # read to precharge delay between accesses to different bank groups
Total number of memory sub partition = 22
addr_dec_mask[CHIP]  = 0000000000000000 	high:64 low:0
addr_dec_mask[BK]    = 0000000000007080 	high:15 low:7
addr_dec_mask[ROW]   = 000000000fff8000 	high:28 low:15
addr_dec_mask[COL]   = 0000000000000f7f 	high:12 low:0
addr_dec_mask[BURST] = 000000000000001f 	high:5 low:0
sub_partition_id_mask = 0000000000000080
GPGPU-Sim uArch: clock freqs: 1481000000.000000:2962000000.000000:1481000000.000000:2750000000.000000
GPGPU-Sim uArch: clock periods: 0.00000000067521944632:0.00000000033760972316:0.00000000067521944632:0.00000000036363636364
*** Initializing Memory Statistics ***
GPGPU-Sim uArch: interconnect node map (shaderID+MemID to icntID)
GPGPU-Sim uArch: Memory nodes ID start from index: 28
GPGPU-Sim uArch:    0   1   2   3   4   5   6
GPGPU-Sim uArch:    7   8   9  10  11  12  13
GPGPU-Sim uArch:   14  15  16  17  18  19  20
GPGPU-Sim uArch:   21  22  23  24  25  26  27
GPGPU-Sim uArch:   28  29  30  31  32  33  34
GPGPU-Sim uArch:   35  36  37  38  39  40  41
GPGPU-Sim uArch:   42  43  44  45  46  47  48
GPGPU-Sim uArch:   49
GPGPU-Sim uArch: interconnect node reverse map (icntID to shaderID+MemID)
GPGPU-Sim uArch: Memory nodes start from ID: 28
GPGPU-Sim uArch:    0   1   2   3   4   5   6
GPGPU-Sim uArch:    7   8   9  10  11  12  13
GPGPU-Sim uArch:   14  15  16  17  18  19  20
GPGPU-Sim uArch:   21  22  23  24  25  26  27
GPGPU-Sim uArch:   28  29  30  31  32  33  34
GPGPU-Sim uArch:   35  36  37  38  39  40  41
GPGPU-Sim uArch:   42  43  44  45  46  47  48
GPGPU-Sim uArch:   49
fd0e239e19bce071704461e9b41cb476  /root/gpgpu-sim_UVMSmart/benchmarks/Managed/bfs/bfs
GPGPU-Sim uArch: performance model initialization complete.
GPGPU-Sim PTX: __cudaRegisterFatBinary, fat_cubin_handle = 1, filename=default
self exe links to: /root/gpgpu-sim_UVMSmart/benchmarks/Managed/bfs/bfs
Running md5sum using "md5sum /root/gpgpu-sim_UVMSmart/benchmarks/Managed/bfs/bfs "
Parsing file _cuobjdump_complete_output_skmNmr
######### cuobjdump parser ########
## Adding new section ELF
Adding arch: sm_20
Adding identifier: default
## Adding new section ELF
Adding arch: sm_20
Adding identifier: default
## Adding new section PTX
Adding ptx filename: _cuobjdump_1.ptx
Adding arch: sm_20
Adding identifier: default
Done parsing!!!
GPGPU-Sim PTX: __cudaRegisterFunction _Z7Kernel2PbS_S_S_i : hostFun 0x0x401649, fat_cubin_handle = 1
GPGPU-Sim PTX: instruction assembly for function '_Z6KernelP4NodePiPbS2_S2_S1_i'...   done.
GPGPU-Sim PTX: finding reconvergence points for '_Z6KernelP4NodePiPbS2_S2_S1_i'...
GPGPU-Sim PTX: Finding dominators for '_Z6KernelP4NodePiPbS2_S2_S1_i'...
GPGPU-Sim PTX: Finding immediate dominators for '_Z6KernelP4NodePiPbS2_S2_S1_i'...
GPGPU-Sim PTX: Finding postdominators for '_Z6KernelP4NodePiPbS2_S2_S1_i'...
GPGPU-Sim PTX: Finding immediate postdominators for '_Z6KernelP4NodePiPbS2_S2_S1_i'...
GPGPU-Sim PTX: pre-decoding instructions for '_Z6KernelP4NodePiPbS2_S2_S1_i'...
GPGPU-Sim PTX: reconvergence points for _Z6KernelP4NodePiPbS2_S2_S1_i...
GPGPU-Sim PTX:  1 (potential) branch divergence @  PC=0x060 (_1.ptx:42) @%p1 bra BB0_7;
GPGPU-Sim PTX:    immediate post dominator      @  PC=0x1e8 (_1.ptx:101) ret;
GPGPU-Sim PTX:  2 (potential) branch divergence @  PC=0x090 (_1.ptx:49) @%p2 bra BB0_7;
GPGPU-Sim PTX:    immediate post dominator      @  PC=0x1e8 (_1.ptx:101) ret;
GPGPU-Sim PTX:  3 (potential) branch divergence @  PC=0x0d8 (_1.ptx:59) @%p3 bra BB0_7;
GPGPU-Sim PTX:    immediate post dominator      @  PC=0x1e8 (_1.ptx:101) ret;
GPGPU-Sim PTX:  4 (potential) branch divergence @  PC=0x160 (_1.ptx:79) @%p4 bra BB0_6;
GPGPU-Sim PTX:    immediate post dominator      @  PC=0x1b8 (_1.ptx:93) mov.u32 %r24, %r25;
GPGPU-Sim PTX:  5 (potential) branch divergence @  PC=0x1e0 (_1.ptx:98) @%p5 bra BB0_4;
GPGPU-Sim PTX:    immediate post dominator      @  PC=0x1e8 (_1.ptx:101) ret;
GPGPU-Sim PTX: ... end of reconvergence points for _Z6KernelP4NodePiPbS2_S2_S1_i
GPGPU-Sim PTX: ... done pre-decoding instructions for '_Z6KernelP4NodePiPbS2_S2_S1_i'.
GPGPU-Sim PTX: instruction assembly for function '_Z7Kernel2PbS_S_S_i'...   done.
GPGPU-Sim PTX: finding reconvergence points for '_Z7Kernel2PbS_S_S_i'...
GPGPU-Sim PTX: Finding dominators for '_Z7Kernel2PbS_S_S_i'...
GPGPU-Sim PTX: Finding immediate dominators for '_Z7Kernel2PbS_S_S_i'...
GPGPU-Sim PTX: Finding postdominators for '_Z7Kernel2PbS_S_S_i'...
GPGPU-Sim PTX: Finding immediate postdominators for '_Z7Kernel2PbS_S_S_i'...
GPGPU-Sim PTX: pre-decoding instructions for '_Z7Kernel2PbS_S_S_i'...
GPGPU-Sim PTX: reconvergence points for _Z7Kernel2PbS_S_S_i...
GPGPU-Sim PTX:  1 (potential) branch divergence @  PC=0x240 (_1.ptx:129) @%p1 bra BB1_3;
GPGPU-Sim PTX:    immediate post dominator      @  PC=0x2d0 (_1.ptx:151) ret;
GPGPU-Sim PTX:  2 (potential) branch divergence @  PC=0x270 (_1.ptx:136) @%p2 bra BB1_3;
GPGPU-Sim PTX:    immediate post dominator      @  PC=0x2d0 (_1.ptx:151) ret;
GPGPU-Sim PTX: ... end of reconvergence points for _Z7Kernel2PbS_S_S_i
GPGPU-Sim PTX: ... done pre-decoding instructions for '_Z7Kernel2PbS_S_S_i'.
GPGPU-Sim PTX: finished parsing EMBEDDED .ptx file _1.ptx
Adding _cuobjdump_1.ptx with cubin handle 1
GPGPU-Sim PTX: extracting embedded .ptx to temporary file "_ptx_DBa0xp"
Running: cat _ptx_DBa0xp | sed 's/.version 1.5/.version 1.4/' | sed 's/, texmode_independent//' | sed 's/\(\.extern \.const\[1\] .b8 \w\+\)\[\]/\1\[1\]/' | sed 's/const\[.\]/const\[0\]/g' > _ptx2_mRKdJn
GPGPU-Sim PTX: generating ptxinfo using "$CUDA_INSTALL_PATH/bin/ptxas --gpu-name=sm_20 -v _ptx2_mRKdJn --output-file  /dev/null 2> _ptx_DBa0xpinfo"
GPGPU-Sim PTX: Kernel '_Z7Kernel2PbS_S_S_i' : regs=12, lmem=0, smem=0, cmem=68
GPGPU-Sim PTX: Kernel '_Z6KernelP4NodePiPbS2_S2_S1_i' : regs=15, lmem=0, smem=0, cmem=84
GPGPU-Sim PTX: removing ptxinfo using "rm -f _ptx_DBa0xp _ptx2_mRKdJn _ptx_DBa0xpinfo"
GPGPU-Sim PTX: loading globals with explicit initializers... 
GPGPU-Sim PTX: finished loading globals (0 bytes total).
GPGPU-Sim PTX: loading constants with explicit initializers...  done.
GPGPU-Sim PTX: __cudaRegisterFunction _Z6KernelP4NodePiPbS2_S2_S1_i : hostFun 0x0x401519, fat_cubin_handle = 1
Reading File
Read File
Copied Everything to GPU memory
Start traversing the tree

GPGPU-Sim PTX: cudaLaunch for 0x0x401519 (mode=performance simulation) on stream 0
GPGPU-Sim PTX: pushing kernel '_Z6KernelP4NodePiPbS2_S2_S1_i' to stream 0, gridDim= (511,1,1) blockDim = (512,1,1) 
GPGPU-Sim uArch: Shader 1 bind to kernel 1 '_Z6KernelP4NodePiPbS2_S2_S1_i'
GPGPU-Sim uArch: CTA/core = 4, limited by: threads
GPGPU-Sim uArch: Shader 2 bind to kernel 1 '_Z6KernelP4NodePiPbS2_S2_S1_i'
GPGPU-Sim uArch: Shader 3 bind to kernel 1 '_Z6KernelP4NodePiPbS2_S2_S1_i'
GPGPU-Sim uArch: Shader 4 bind to kernel 1 '_Z6KernelP4NodePiPbS2_S2_S1_i'
GPGPU-Sim uArch: Shader 5 bind to kernel 1 '_Z6KernelP4NodePiPbS2_S2_S1_i'
GPGPU-Sim uArch: Shader 6 bind to kernel 1 '_Z6KernelP4NodePiPbS2_S2_S1_i'
GPGPU-Sim uArch: Shader 7 bind to kernel 1 '_Z6KernelP4NodePiPbS2_S2_S1_i'
GPGPU-Sim uArch: Shader 8 bind to kernel 1 '_Z6KernelP4NodePiPbS2_S2_S1_i'
GPGPU-Sim uArch: Shader 9 bind to kernel 1 '_Z6KernelP4NodePiPbS2_S2_S1_i'
GPGPU-Sim uArch: Shader 10 bind to kernel 1 '_Z6KernelP4NodePiPbS2_S2_S1_i'
GPGPU-Sim uArch: Shader 11 bind to kernel 1 '_Z6KernelP4NodePiPbS2_S2_S1_i'
GPGPU-Sim uArch: Shader 12 bind to kernel 1 '_Z6KernelP4NodePiPbS2_S2_S1_i'
GPGPU-Sim uArch: Shader 13 bind to kernel 1 '_Z6KernelP4NodePiPbS2_S2_S1_i'
GPGPU-Sim uArch: Shader 14 bind to kernel 1 '_Z6KernelP4NodePiPbS2_S2_S1_i'
GPGPU-Sim uArch: Shader 15 bind to kernel 1 '_Z6KernelP4NodePiPbS2_S2_S1_i'
GPGPU-Sim uArch: Shader 16 bind to kernel 1 '_Z6KernelP4NodePiPbS2_S2_S1_i'
GPGPU-Sim uArch: Shader 17 bind to kernel 1 '_Z6KernelP4NodePiPbS2_S2_S1_i'
GPGPU-Sim uArch: Shader 18 bind to kernel 1 '_Z6KernelP4NodePiPbS2_S2_S1_i'
GPGPU-Sim uArch: Shader 19 bind to kernel 1 '_Z6KernelP4NodePiPbS2_S2_S1_i'
GPGPU-Sim uArch: Shader 20 bind to kernel 1 '_Z6KernelP4NodePiPbS2_S2_S1_i'
GPGPU-Sim uArch: Shader 21 bind to kernel 1 '_Z6KernelP4NodePiPbS2_S2_S1_i'
GPGPU-Sim uArch: Shader 22 bind to kernel 1 '_Z6KernelP4NodePiPbS2_S2_S1_i'
GPGPU-Sim uArch: Shader 23 bind to kernel 1 '_Z6KernelP4NodePiPbS2_S2_S1_i'
GPGPU-Sim uArch: Shader 24 bind to kernel 1 '_Z6KernelP4NodePiPbS2_S2_S1_i'
GPGPU-Sim uArch: Shader 25 bind to kernel 1 '_Z6KernelP4NodePiPbS2_S2_S1_i'
GPGPU-Sim uArch: Shader 26 bind to kernel 1 '_Z6KernelP4NodePiPbS2_S2_S1_i'
GPGPU-Sim uArch: Shader 27 bind to kernel 1 '_Z6KernelP4NodePiPbS2_S2_S1_i'
GPGPU-Sim uArch: Shader 0 bind to kernel 1 '_Z6KernelP4NodePiPbS2_S2_S1_i'
GPGPU-Sim uArch: Shader 2 bind to kernel 1 '_Z6KernelP4NodePiPbS2_S2_S1_i'
GPGPU-Sim uArch: Shader 3 bind to kernel 1 '_Z6KernelP4NodePiPbS2_S2_S1_i'
GPGPU-Sim uArch: Shader 4 bind to kernel 1 '_Z6KernelP4NodePiPbS2_S2_S1_i'
GPGPU-Sim uArch: Shader 5 bind to kernel 1 '_Z6KernelP4NodePiPbS2_S2_S1_i'
GPGPU-Sim uArch: Shader 6 bind to kernel 1 '_Z6KernelP4NodePiPbS2_S2_S1_i'
GPGPU-Sim uArch: Shader 7 bind to kernel 1 '_Z6KernelP4NodePiPbS2_S2_S1_i'
GPGPU-Sim uArch: Shader 8 bind to kernel 1 '_Z6KernelP4NodePiPbS2_S2_S1_i'
GPGPU-Sim uArch: Shader 9 bind to kernel 1 '_Z6KernelP4NodePiPbS2_S2_S1_i'
GPGPU-Sim uArch: Shader 10 bind to kernel 1 '_Z6KernelP4NodePiPbS2_S2_S1_i'
GPGPU-Sim uArch: Shader 11 bind to kernel 1 '_Z6KernelP4NodePiPbS2_S2_S1_i'
GPGPU-Sim uArch: Shader 12 bind to kernel 1 '_Z6KernelP4NodePiPbS2_S2_S1_i'
GPGPU-Sim uArch: Shader 13 bind to kernel 1 '_Z6KernelP4NodePiPbS2_S2_S1_i'
GPGPU-Sim uArch: Shader 14 bind to kernel 1 '_Z6KernelP4NodePiPbS2_S2_S1_i'
GPGPU-Sim uArch: Shader 15 bind to kernel 1 '_Z6KernelP4NodePiPbS2_S2_S1_i'
GPGPU-Sim uArch: Shader 16 bind to kernel 1 '_Z6KernelP4NodePiPbS2_S2_S1_i'
GPGPU-Sim uArch: Shader 17 bind to kernel 1 '_Z6KernelP4NodePiPbS2_S2_S1_i'
GPGPU-Sim uArch: Shader 18 bind to kernel 1 '_Z6KernelP4NodePiPbS2_S2_S1_i'
GPGPU-Sim uArch: Shader 19 bind to kernel 1 '_Z6KernelP4NodePiPbS2_S2_S1_i'
GPGPU-Sim uArch: Shader 20 bind to kernel 1 '_Z6KernelP4NodePiPbS2_S2_S1_i'
GPGPU-Sim uArch: Shader 21 bind to kernel 1 '_Z6KernelP4NodePiPbS2_S2_S1_i'
GPGPU-Sim uArch: Shader 22 bind to kernel 1 '_Z6KernelP4NodePiPbS2_S2_S1_i'
GPGPU-Sim uArch: Shader 23 bind to kernel 1 '_Z6KernelP4NodePiPbS2_S2_S1_i'
GPGPU-Sim uArch: Shader 24 bind to kernel 1 '_Z6KernelP4NodePiPbS2_S2_S1_i'
GPGPU-Sim uArch: Shader 25 bind to kernel 1 '_Z6KernelP4NodePiPbS2_S2_S1_i'
GPGPU-Sim uArch: Shader 26 bind to kernel 1 '_Z6KernelP4NodePiPbS2_S2_S1_i'
GPGPU-Sim uArch: Shader 27 bind to kernel 1 '_Z6KernelP4NodePiPbS2_S2_S1_i'
GPGPU-Sim uArch: Shader 0 bind to kernel 1 '_Z6KernelP4NodePiPbS2_S2_S1_i'
GPGPU-Sim uArch: Shader 2 bind to kernel 1 '_Z6KernelP4NodePiPbS2_S2_S1_i'
GPGPU-Sim uArch: Shader 3 bind to kernel 1 '_Z6KernelP4NodePiPbS2_S2_S1_i'
GPGPU-Sim uArch: Shader 4 bind to kernel 1 '_Z6KernelP4NodePiPbS2_S2_S1_i'
GPGPU-Sim uArch: Shader 5 bind to kernel 1 '_Z6KernelP4NodePiPbS2_S2_S1_i'
GPGPU-Sim uArch: Shader 6 bind to kernel 1 '_Z6KernelP4NodePiPbS2_S2_S1_i'
GPGPU-Sim uArch: Shader 7 bind to kernel 1 '_Z6KernelP4NodePiPbS2_S2_S1_i'
GPGPU-Sim uArch: Shader 8 bind to kernel 1 '_Z6KernelP4NodePiPbS2_S2_S1_i'
GPGPU-Sim uArch: Shader 9 bind to kernel 1 '_Z6KernelP4NodePiPbS2_S2_S1_i'
GPGPU-Sim uArch: Shader 10 bind to kernel 1 '_Z6KernelP4NodePiPbS2_S2_S1_i'
GPGPU-Sim uArch: Shader 11 bind to kernel 1 '_Z6KernelP4NodePiPbS2_S2_S1_i'
GPGPU-Sim uArch: Shader 12 bind to kernel 1 '_Z6KernelP4NodePiPbS2_S2_S1_i'
GPGPU-Sim uArch: Shader 13 bind to kernel 1 '_Z6KernelP4NodePiPbS2_S2_S1_i'
GPGPU-Sim uArch: Shader 14 bind to kernel 1 '_Z6KernelP4NodePiPbS2_S2_S1_i'
GPGPU-Sim uArch: Shader 15 bind to kernel 1 '_Z6KernelP4NodePiPbS2_S2_S1_i'
GPGPU-Sim uArch: Shader 16 bind to kernel 1 '_Z6KernelP4NodePiPbS2_S2_S1_i'
GPGPU-Sim uArch: Shader 17 bind to kernel 1 '_Z6KernelP4NodePiPbS2_S2_S1_i'
GPGPU-Sim uArch: Shader 18 bind to kernel 1 '_Z6KernelP4NodePiPbS2_S2_S1_i'
GPGPU-Sim uArch: Shader 19 bind to kernel 1 '_Z6KernelP4NodePiPbS2_S2_S1_i'
GPGPU-Sim uArch: Shader 20 bind to kernel 1 '_Z6KernelP4NodePiPbS2_S2_S1_i'
GPGPU-Sim uArch: Shader 21 bind to kernel 1 '_Z6KernelP4NodePiPbS2_S2_S1_i'
GPGPU-Sim uArch: Shader 22 bind to kernel 1 '_Z6KernelP4NodePiPbS2_S2_S1_i'
GPGPU-Sim uArch: Shader 23 bind to kernel 1 '_Z6KernelP4NodePiPbS2_S2_S1_i'
GPGPU-Sim uArch: Shader 24 bind to kernel 1 '_Z6KernelP4NodePiPbS2_S2_S1_i'
GPGPU-Sim uArch: Shader 25 bind to kernel 1 '_Z6KernelP4NodePiPbS2_S2_S1_i'
GPGPU-Sim uArch: Shader 26 bind to kernel 1 '_Z6KernelP4NodePiPbS2_S2_S1_i'
GPGPU-Sim uArch: Shader 27 bind to kernel 1 '_Z6KernelP4NodePiPbS2_S2_S1_i'
GPGPU-Sim uArch: Shader 0 bind to kernel 1 '_Z6KernelP4NodePiPbS2_S2_S1_i'
GPGPU-Sim uArch: Shader 2 bind to kernel 1 '_Z6KernelP4NodePiPbS2_S2_S1_i'
GPGPU-Sim uArch: Shader 3 bind to kernel 1 '_Z6KernelP4NodePiPbS2_S2_S1_i'
GPGPU-Sim uArch: Shader 4 bind to kernel 1 '_Z6KernelP4NodePiPbS2_S2_S1_i'
GPGPU-Sim uArch: Shader 5 bind to kernel 1 '_Z6KernelP4NodePiPbS2_S2_S1_i'
GPGPU-Sim uArch: Shader 6 bind to kernel 1 '_Z6KernelP4NodePiPbS2_S2_S1_i'
GPGPU-Sim uArch: Shader 7 bind to kernel 1 '_Z6KernelP4NodePiPbS2_S2_S1_i'
GPGPU-Sim uArch: Shader 8 bind to kernel 1 '_Z6KernelP4NodePiPbS2_S2_S1_i'
GPGPU-Sim uArch: Shader 9 bind to kernel 1 '_Z6KernelP4NodePiPbS2_S2_S1_i'
GPGPU-Sim uArch: Shader 10 bind to kernel 1 '_Z6KernelP4NodePiPbS2_S2_S1_i'
GPGPU-Sim uArch: Shader 11 bind to kernel 1 '_Z6KernelP4NodePiPbS2_S2_S1_i'
GPGPU-Sim uArch: Shader 12 bind to kernel 1 '_Z6KernelP4NodePiPbS2_S2_S1_i'
GPGPU-Sim uArch: Shader 13 bind to kernel 1 '_Z6KernelP4NodePiPbS2_S2_S1_i'
GPGPU-Sim uArch: Shader 14 bind to kernel 1 '_Z6KernelP4NodePiPbS2_S2_S1_i'
GPGPU-Sim uArch: Shader 15 bind to kernel 1 '_Z6KernelP4NodePiPbS2_S2_S1_i'
GPGPU-Sim uArch: Shader 16 bind to kernel 1 '_Z6KernelP4NodePiPbS2_S2_S1_i'
GPGPU-Sim uArch: Shader 17 bind to kernel 1 '_Z6KernelP4NodePiPbS2_S2_S1_i'
GPGPU-Sim uArch: Shader 18 bind to kernel 1 '_Z6KernelP4NodePiPbS2_S2_S1_i'
GPGPU-Sim uArch: Shader 19 bind to kernel 1 '_Z6KernelP4NodePiPbS2_S2_S1_i'
GPGPU-Sim uArch: Shader 20 bind to kernel 1 '_Z6KernelP4NodePiPbS2_S2_S1_i'
GPGPU-Sim uArch: Shader 21 bind to kernel 1 '_Z6KernelP4NodePiPbS2_S2_S1_i'
GPGPU-Sim uArch: Shader 22 bind to kernel 1 '_Z6KernelP4NodePiPbS2_S2_S1_i'
GPGPU-Sim uArch: Shader 23 bind to kernel 1 '_Z6KernelP4NodePiPbS2_S2_S1_i'
GPGPU-Sim uArch: Shader 24 bind to kernel 1 '_Z6KernelP4NodePiPbS2_S2_S1_i'
GPGPU-Sim uArch: Shader 25 bind to kernel 1 '_Z6KernelP4NodePiPbS2_S2_S1_i'
GPGPU-Sim uArch: Shader 26 bind to kernel 1 '_Z6KernelP4NodePiPbS2_S2_S1_i'
GPGPU-Sim uArch: Shader 27 bind to kernel 1 '_Z6KernelP4NodePiPbS2_S2_S1_i'
GPGPU-Sim uArch: Shader 0 bind to kernel 1 '_Z6KernelP4NodePiPbS2_S2_S1_i'
GPGPU-Sim uArch: Shader 2 bind to kernel 1 '_Z6KernelP4NodePiPbS2_S2_S1_i'
GPGPU-Sim uArch: Shader 3 bind to kernel 1 '_Z6KernelP4NodePiPbS2_S2_S1_i'
GPGPU-Sim uArch: Shader 4 bind to kernel 1 '_Z6KernelP4NodePiPbS2_S2_S1_i'
GPGPU-Sim uArch: Shader 5 bind to kernel 1 '_Z6KernelP4NodePiPbS2_S2_S1_i'
GPGPU-Sim uArch: Shader 6 bind to kernel 1 '_Z6KernelP4NodePiPbS2_S2_S1_i'
GPGPU-Sim uArch: Shader 7 bind to kernel 1 '_Z6KernelP4NodePiPbS2_S2_S1_i'
GPGPU-Sim uArch: Shader 8 bind to kernel 1 '_Z6KernelP4NodePiPbS2_S2_S1_i'
GPGPU-Sim uArch: Shader 9 bind to kernel 1 '_Z6KernelP4NodePiPbS2_S2_S1_i'
GPGPU-Sim uArch: Shader 10 bind to kernel 1 '_Z6KernelP4NodePiPbS2_S2_S1_i'
GPGPU-Sim uArch: Shader 11 bind to kernel 1 '_Z6KernelP4NodePiPbS2_S2_S1_i'
GPGPU-Sim uArch: Shader 12 bind to kernel 1 '_Z6KernelP4NodePiPbS2_S2_S1_i'
GPGPU-Sim uArch: Shader 13 bind to kernel 1 '_Z6KernelP4NodePiPbS2_S2_S1_i'
GPGPU-Sim uArch: Shader 14 bind to kernel 1 '_Z6KernelP4NodePiPbS2_S2_S1_i'
GPGPU-Sim uArch: Shader 15 bind to kernel 1 '_Z6KernelP4NodePiPbS2_S2_S1_i'
GPGPU-Sim uArch: Shader 16 bind to kernel 1 '_Z6KernelP4NodePiPbS2_S2_S1_i'
GPGPU-Sim uArch: Shader 17 bind to kernel 1 '_Z6KernelP4NodePiPbS2_S2_S1_i'
GPGPU-Sim uArch: Shader 18 bind to kernel 1 '_Z6KernelP4NodePiPbS2_S2_S1_i'
GPGPU-Sim uArch: Shader 19 bind to kernel 1 '_Z6KernelP4NodePiPbS2_S2_S1_i'
GPGPU-Sim uArch: Shader 20 bind to kernel 1 '_Z6KernelP4NodePiPbS2_S2_S1_i'
GPGPU-Sim uArch: Shader 21 bind to kernel 1 '_Z6KernelP4NodePiPbS2_S2_S1_i'
GPGPU-Sim uArch: Shader 22 bind to kernel 1 '_Z6KernelP4NodePiPbS2_S2_S1_i'
GPGPU-Sim uArch: Shader 23 bind to kernel 1 '_Z6KernelP4NodePiPbS2_S2_S1_i'
GPGPU-Sim uArch: Shader 24 bind to kernel 1 '_Z6KernelP4NodePiPbS2_S2_S1_i'
GPGPU-Sim uArch: Shader 25 bind to kernel 1 '_Z6KernelP4NodePiPbS2_S2_S1_i'
GPGPU-Sim uArch: Shader 26 bind to kernel 1 '_Z6KernelP4NodePiPbS2_S2_S1_i'
GPGPU-Sim uArch: Shader 27 bind to kernel 1 '_Z6KernelP4NodePiPbS2_S2_S1_i'
GPGPU-Sim uArch: Shader 0 bind to kernel 1 '_Z6KernelP4NodePiPbS2_S2_S1_i'
Destroy streams for kernel 1: size 0
kernel_name = _Z6KernelP4NodePiPbS2_S2_S1_i 
kernel_launch_uid = 1 
gpu_sim_cycle = 231496
gpu_sim_insn = 4970238
gpu_ipc =      21.4701
gpu_tot_sim_cycle = 456182
gpu_tot_sim_insn = 4970238
gpu_tot_ipc =      10.8953
gpu_tot_issued_cta = 511
max_total_param_size = 0
gpu_stall_dramfull = 0
gpu_stall_icnt2sh    = 329
partiton_reqs_in_parallel = 5092912
partiton_reqs_in_parallel_total    = 0
partiton_level_parallism =      22.0000
partiton_level_parallism_total  =      11.1642
partiton_reqs_in_parallel_util = 5092912
partiton_reqs_in_parallel_util_total    = 0
gpu_sim_cycle_parition_util = 231496
gpu_tot_sim_cycle_parition_util    = 0
partiton_level_parallism_util =      22.0000
partiton_level_parallism_util_total  =      22.0000
partiton_replys_in_parallel = 8336
partiton_replys_in_parallel_total    = 0
L2_BW  =       3.4131 GB/Sec
L2_BW_total  =       1.7320 GB/Sec
gpu_total_sim_rate=25886

========= Core cache stats =========
L1I_cache:
	L1I_total_cache_accesses = 90013
	L1I_total_cache_misses = 2715
	L1I_total_cache_miss_rate = 0.0302
	L1I_total_cache_pending_hits = 0
	L1I_total_cache_reservation_fails = 6846
L1D_cache:
	L1D_cache_core[0]: Access = 0, Miss = 0, Miss_rate = -nan, Pending_hits = 0, Reservation_fails = 0
	L1D_cache_core[1]: Access = 0, Miss = 0, Miss_rate = -nan, Pending_hits = 0, Reservation_fails = 0
	L1D_cache_core[2]: Access = 0, Miss = 0, Miss_rate = -nan, Pending_hits = 0, Reservation_fails = 0
	L1D_cache_core[3]: Access = 0, Miss = 0, Miss_rate = -nan, Pending_hits = 0, Reservation_fails = 0
	L1D_cache_core[4]: Access = 0, Miss = 0, Miss_rate = -nan, Pending_hits = 0, Reservation_fails = 0
	L1D_cache_core[5]: Access = 0, Miss = 0, Miss_rate = -nan, Pending_hits = 0, Reservation_fails = 0
	L1D_cache_core[6]: Access = 0, Miss = 0, Miss_rate = -nan, Pending_hits = 0, Reservation_fails = 0
	L1D_cache_core[7]: Access = 0, Miss = 0, Miss_rate = -nan, Pending_hits = 0, Reservation_fails = 0
	L1D_cache_core[8]: Access = 0, Miss = 0, Miss_rate = -nan, Pending_hits = 0, Reservation_fails = 0
	L1D_cache_core[9]: Access = 0, Miss = 0, Miss_rate = -nan, Pending_hits = 0, Reservation_fails = 0
	L1D_cache_core[10]: Access = 0, Miss = 0, Miss_rate = -nan, Pending_hits = 0, Reservation_fails = 0
	L1D_cache_core[11]: Access = 0, Miss = 0, Miss_rate = -nan, Pending_hits = 0, Reservation_fails = 0
	L1D_cache_core[12]: Access = 0, Miss = 0, Miss_rate = -nan, Pending_hits = 0, Reservation_fails = 0
	L1D_cache_core[13]: Access = 0, Miss = 0, Miss_rate = -nan, Pending_hits = 0, Reservation_fails = 0
	L1D_cache_core[14]: Access = 0, Miss = 0, Miss_rate = -nan, Pending_hits = 0, Reservation_fails = 0
	L1D_cache_core[15]: Access = 0, Miss = 0, Miss_rate = -nan, Pending_hits = 0, Reservation_fails = 0
	L1D_cache_core[16]: Access = 0, Miss = 0, Miss_rate = -nan, Pending_hits = 0, Reservation_fails = 0
	L1D_cache_core[17]: Access = 0, Miss = 0, Miss_rate = -nan, Pending_hits = 0, Reservation_fails = 0
	L1D_cache_core[18]: Access = 0, Miss = 0, Miss_rate = -nan, Pending_hits = 0, Reservation_fails = 0
	L1D_cache_core[19]: Access = 0, Miss = 0, Miss_rate = -nan, Pending_hits = 0, Reservation_fails = 0
	L1D_cache_core[20]: Access = 0, Miss = 0, Miss_rate = -nan, Pending_hits = 0, Reservation_fails = 0
	L1D_cache_core[21]: Access = 0, Miss = 0, Miss_rate = -nan, Pending_hits = 0, Reservation_fails = 0
	L1D_cache_core[22]: Access = 0, Miss = 0, Miss_rate = -nan, Pending_hits = 0, Reservation_fails = 0
	L1D_cache_core[23]: Access = 0, Miss = 0, Miss_rate = -nan, Pending_hits = 0, Reservation_fails = 0
	L1D_cache_core[24]: Access = 0, Miss = 0, Miss_rate = -nan, Pending_hits = 0, Reservation_fails = 0
	L1D_cache_core[25]: Access = 0, Miss = 0, Miss_rate = -nan, Pending_hits = 0, Reservation_fails = 0
	L1D_cache_core[26]: Access = 0, Miss = 0, Miss_rate = -nan, Pending_hits = 0, Reservation_fails = 0
	L1D_cache_core[27]: Access = 0, Miss = 0, Miss_rate = -nan, Pending_hits = 0, Reservation_fails = 0
	L1D_total_cache_accesses = 0
	L1D_total_cache_misses = 0
	L1D_total_cache_pending_hits = 0
	L1D_total_cache_reservation_fails = 0
	L1D_cache_data_port_util = 0.000
	L1D_cache_fill_port_util = 0.000
L1C_cache:
	L1C_total_cache_accesses = 57232
	L1C_total_cache_misses = 1792
	L1C_total_cache_miss_rate = 0.0313
	L1C_total_cache_pending_hits = 0
	L1C_total_cache_reservation_fails = 4886
L1T_cache:
	L1T_total_cache_accesses = 0
	L1T_total_cache_misses = 0
	L1T_total_cache_pending_hits = 0
	L1T_total_cache_reservation_fails = 0

Total_core_cache_stats:
	Total_core_cache_stats_breakdown[GLOBAL_ACC_R][HIT] = 0
	Total_core_cache_stats_breakdown[GLOBAL_ACC_R][HIT_RESERVED] = 0
	Total_core_cache_stats_breakdown[GLOBAL_ACC_R][MISS] = 0
	Total_core_cache_stats_breakdown[GLOBAL_ACC_R][RESERVATION_FAIL] = 0
	Total_core_cache_stats_breakdown[LOCAL_ACC_R][HIT] = 0
	Total_core_cache_stats_breakdown[LOCAL_ACC_R][HIT_RESERVED] = 0
	Total_core_cache_stats_breakdown[LOCAL_ACC_R][MISS] = 0
	Total_core_cache_stats_breakdown[LOCAL_ACC_R][RESERVATION_FAIL] = 0
	Total_core_cache_stats_breakdown[CONST_ACC_R][HIT] = 55440
	Total_core_cache_stats_breakdown[CONST_ACC_R][HIT_RESERVED] = 0
	Total_core_cache_stats_breakdown[CONST_ACC_R][MISS] = 1792
	Total_core_cache_stats_breakdown[CONST_ACC_R][RESERVATION_FAIL] = 4886
	Total_core_cache_stats_breakdown[TEXTURE_ACC_R][HIT] = 0
	Total_core_cache_stats_breakdown[TEXTURE_ACC_R][HIT_RESERVED] = 0
	Total_core_cache_stats_breakdown[TEXTURE_ACC_R][MISS] = 0
	Total_core_cache_stats_breakdown[TEXTURE_ACC_R][RESERVATION_FAIL] = 0
	Total_core_cache_stats_breakdown[GLOBAL_ACC_W][HIT] = 0
	Total_core_cache_stats_breakdown[GLOBAL_ACC_W][HIT_RESERVED] = 0
	Total_core_cache_stats_breakdown[GLOBAL_ACC_W][MISS] = 0
	Total_core_cache_stats_breakdown[GLOBAL_ACC_W][RESERVATION_FAIL] = 0
	Total_core_cache_stats_breakdown[LOCAL_ACC_W][HIT] = 0
	Total_core_cache_stats_breakdown[LOCAL_ACC_W][HIT_RESERVED] = 0
	Total_core_cache_stats_breakdown[LOCAL_ACC_W][MISS] = 0
	Total_core_cache_stats_breakdown[LOCAL_ACC_W][RESERVATION_FAIL] = 0
	Total_core_cache_stats_breakdown[L1_WRBK_ACC][HIT] = 0
	Total_core_cache_stats_breakdown[L1_WRBK_ACC][HIT_RESERVED] = 0
	Total_core_cache_stats_breakdown[L1_WRBK_ACC][MISS] = 0
	Total_core_cache_stats_breakdown[L1_WRBK_ACC][RESERVATION_FAIL] = 0
	Total_core_cache_stats_breakdown[L2_WRBK_ACC][HIT] = 0
	Total_core_cache_stats_breakdown[L2_WRBK_ACC][HIT_RESERVED] = 0
	Total_core_cache_stats_breakdown[L2_WRBK_ACC][MISS] = 0
	Total_core_cache_stats_breakdown[L2_WRBK_ACC][RESERVATION_FAIL] = 0
	Total_core_cache_stats_breakdown[INST_ACC_R][HIT] = 87298
	Total_core_cache_stats_breakdown[INST_ACC_R][HIT_RESERVED] = 0
	Total_core_cache_stats_breakdown[INST_ACC_R][MISS] = 2715
	Total_core_cache_stats_breakdown[INST_ACC_R][RESERVATION_FAIL] = 6846
	Total_core_cache_stats_breakdown[L1_WR_ALLOC_R][HIT] = 0
	Total_core_cache_stats_breakdown[L1_WR_ALLOC_R][HIT_RESERVED] = 0
	Total_core_cache_stats_breakdown[L1_WR_ALLOC_R][MISS] = 0
	Total_core_cache_stats_breakdown[L1_WR_ALLOC_R][RESERVATION_FAIL] = 0
	Total_core_cache_stats_breakdown[L2_WR_ALLOC_R][HIT] = 0
	Total_core_cache_stats_breakdown[L2_WR_ALLOC_R][HIT_RESERVED] = 0
	Total_core_cache_stats_breakdown[L2_WR_ALLOC_R][MISS] = 0
	Total_core_cache_stats_breakdown[L2_WR_ALLOC_R][RESERVATION_FAIL] = 0
	Total_core_cache_stats_breakdown[CONST_ACC_R][TOTAL_ACCESS] = 57232
	Total_core_cache_stats_breakdown[INST_ACC_R][TOTAL_ACCESS] = 90013
Shader 0 warp_id issue ditsribution:
warp_id:
0, 1, 2, 3, 4, 5, 6, 7, 8, 9, 10, 11, 12, 13, 14, 15, 16, 17, 18, 19, 20, 21, 22, 23, 24, 25, 26, 27, 28, 29, 30, 31, 32, 33, 34, 35, 36, 37, 38, 39, 40, 41, 42, 43, 44, 45, 46, 47, 48, 49, 50, 51, 52, 53, 54, 55, 56, 57, 58, 59, 60, 61, 62, 63, 
distro:
115, 115, 114, 115, 114, 115, 114, 115, 115, 115, 115, 115, 115, 115, 115, 115, 115, 115, 115, 115, 115, 115, 115, 115, 115, 115, 115, 115, 115, 115, 115, 115, 92, 92, 92, 92, 92, 92, 92, 92, 92, 92, 92, 92, 92, 92, 92, 92, 92, 92, 92, 92, 92, 92, 92, 92, 92, 92, 92, 92, 92, 92, 92, 92, 
gpgpu_n_tot_thrd_icount = 5237440
gpgpu_n_tot_w_icount = 163670
gpgpu_n_stall_shd_mem = 4886
gpgpu_n_mem_read_local = 0
gpgpu_n_mem_write_local = 0
gpgpu_n_mem_read_global = 8208
gpgpu_n_mem_write_global = 15
gpgpu_n_mem_texture = 0
gpgpu_n_mem_const = 28
gpgpu_n_load_insn  = 261481
gpgpu_n_store_insn = 15
gpgpu_n_shmem_insn = 0
gpgpu_n_tex_insn = 0
gpgpu_n_const_mem_insn = 0
gpgpu_n_param_mem_insn = 1831424
gpgpu_n_shmem_bkconflict = 0
gpgpu_n_cache_bkconflict = 0
gpgpu_n_intrawarp_mshr_merge = 0
gpgpu_n_cmem_portconflict = 4886
gpgpu_stall_shd_mem[c_mem][bk_conf] = 4886
gpgpu_stall_shd_mem[c_mem][mshr_rc] = 0
gpgpu_stall_shd_mem[c_mem][icnt_rc] = 0
gpgpu_stall_shd_mem[c_mem][data_port_stall] = 0
gpgpu_stall_shd_mem[t_mem][mshr_rc] = 0
gpgpu_stall_shd_mem[t_mem][icnt_rc] = 0
gpgpu_stall_shd_mem[t_mem][data_port_stall] = 0
gpgpu_stall_shd_mem[s_mem][bk_conf] = 0
gpgpu_stall_shd_mem[gl_mem][bk_conf] = 0
gpgpu_stall_shd_mem[gl_mem][coal_stall] = 0
gpgpu_stall_shd_mem[gl_mem][data_port_stall] = 0
gpgpu_stall_shd_mem[g_mem_ld][mshr_rc] = 0
gpgpu_stall_shd_mem[g_mem_ld][icnt_rc] = 0
gpgpu_stall_shd_mem[g_mem_ld][wb_icnt_rc] = 0
gpgpu_stall_shd_mem[g_mem_ld][wb_rsrv_fail] = 0
gpgpu_stall_shd_mem[g_mem_st][mshr_rc] = 0
gpgpu_stall_shd_mem[g_mem_st][icnt_rc] = 0
gpgpu_stall_shd_mem[g_mem_st][wb_icnt_rc] = 0
gpgpu_stall_shd_mem[g_mem_st][wb_rsrv_fail] = 0
gpgpu_stall_shd_mem[l_mem_ld][mshr_rc] = 0
gpgpu_stall_shd_mem[l_mem_ld][icnt_rc] = 0
gpgpu_stall_shd_mem[l_mem_ld][wb_icnt_rc] = 0
gpgpu_stall_shd_mem[l_mem_ld][wb_rsrv_fail] = 0
gpgpu_stall_shd_mem[l_mem_st][mshr_rc] = 0
gpgpu_stall_shd_mem[l_mem_st][icnt_rc] = 0
gpgpu_stall_shd_mem[l_mem_ld][wb_icnt_rc] = 0
gpgpu_stall_shd_mem[l_mem_ld][wb_rsrv_fail] = 0
gpu_reg_bank_conflict_stalls = 0
Warp Occupancy Distribution:
Stall:34510	W0_Idle:2126687	W0_Scoreboard:8538387	W1:180	W2:0	W3:0	W4:6	W5:0	W6:0	W7:0	W8:0	W9:0	W10:0	W11:0	W12:0	W13:0	W14:0	W15:0	W16:0	W17:0	W18:0	W19:0	W20:0	W21:0	W22:0	W23:0	W24:0	W25:0	W26:0	W27:0	W28:0	W29:0	W30:0	W31:0	W32:163484
traffic_breakdown_coretomem[CONST_ACC_R] = 224 {8:28,}
traffic_breakdown_coretomem[GLOBAL_ACC_R] = 65664 {8:8208,}
traffic_breakdown_coretomem[GLOBAL_ACC_W] = 600 {40:15,}
traffic_breakdown_coretomem[INST_ACC_R] = 680 {8:85,}
traffic_breakdown_memtocore[CONST_ACC_R] = 2016 {72:28,}
traffic_breakdown_memtocore[GLOBAL_ACC_R] = 328320 {40:8208,}
traffic_breakdown_memtocore[GLOBAL_ACC_W] = 120 {8:15,}
traffic_breakdown_memtocore[INST_ACC_R] = 11560 {136:85,}
maxmrqlatency = 20 
maxdqlatency = 0 
maxmflatency = 41588 
averagemflatency = 18697 
max_icnt2mem_latency = 41335 
max_icnt2sh_latency = 456181 
mrq_lat_table:1732 	24 	284 	43 	1 	0 	0 	0 	0 	0 	0 	0 	0 	0 	0 	0 	0 	0 	0 	0 	0 	0 	0 	0 	0 	0 	0 	0 	0 	0 	0 	0 	
dq_lat_table:0 	0 	0 	0 	0 	0 	0 	0 	0 	0 	0 	0 	0 	0 	0 	0 	0 	0 	0 	0 	0 	0 	0 	0 	0 	0 	0 	0 	0 	0 	0 	0 	
mf_lat_table:0 	0 	0 	0 	0 	0 	0 	82 	71 	0 	0 	645 	1289 	1920 	3057 	1187 	0 	0 	0 	0 	0 	0 	0 	0 	0 	0 	0 	0 	0 	0 	0 	0 	
icnt2mem_lat_table:0 	0 	141 	12 	16 	0 	69 	0 	0 	0 	0 	645 	1289 	1920 	3057 	1187 	0 	0 	0 	0 	0 	0 	0 	0 	
icnt2sh_lat_table:0 	0 	3619 	4090 	527 	0 	0 	0 	0 	0 	0 	0 	0 	0 	0 	0 	0 	1 	14 	0 	0 	0 	0 	0 	
mf_lat_pw_table:0 	0 	0 	0 	0 	0 	0 	9 	0 	1 	1 	14 	16 	16 	31 	11 	0 	0 	0 	0 	0 	0 	0 	0 	0 	0 	0 	0 	0 	0 	0 	0 	
maximum concurrent accesses to same row:
dram[0]:         1         0         0         0         0         0         0         0         0        10         0         0        16         0         0         0 
dram[1]:         0         0         0         0         0         3         0         0         0         0        11         0         0         0         0        16 
dram[2]:         0         0         7         0         0         0         0         0         0        10         0         0         0         0         0         0 
dram[3]:         0         0         1         0         0         0         0         0         0         0         0        16         0         0         0         0 
dram[4]:        16         0         0         0         0         0         0         0         0         0         0         0         0         0         1         1 
dram[5]:         0         0         0         0         0         0         0         0         0         0         0         0         0         0         1         1 
dram[6]:         0         0         0         0         0         0         0         0         0         0         0         0        16         0         0         0 
dram[7]:         0         0        16         0         0         0         0         0         0         0         0         0         0         0         0         0 
dram[8]:         0         0         0         0         2         0         0         0         0         0         0         0         0         0         0         0 
dram[9]:         0         0        16         0         0         0         0         0         0         0         0         0         0         0         0         0 
dram[10]:         0         0         0         0         0         0         0         0        11         0         0         0        16         0         0         0 
maximum service time to same row:
dram[0]:    100683    116316    150470    150472    181950    181952         0         0      3758    227717     11574     11577    133659     53503     85054     85055 
dram[1]:    116313    116316    150470    150472    181950    181952    189765         0      3755      3757     36470     11572     53501     53503     85054    121395 
dram[2]:    116313    116316    150470    150472    181950    181952         0         0      3755    196956     11574     11577     53501     53503     85054     85055 
dram[3]:    116313    116316    121523    150472    181950    181952         0         0      3755      3757     11570    192274     53501     53503     85054     85055 
dram[4]:    116313    116316    150470    150472    181950    181952         0         0      3755      3757     11570     11572     53501     53503     84826     84266 
dram[5]:    116317    116319    150474    150477    181955    181956         0         0      3755      3757     11570     11572     53506     53507     44527     81045 
dram[6]:    116313    116316    150470    150472    181950    181952    223134         0      3755      3757     11570     11572    142002     53503     85054     85055 
dram[7]:    116317    116319    150474    150477    181955    181956         0         0      3760      3763     11570     11572     53506     53507     85057     85059 
dram[8]:    116313    116316    150470    150472    181950    181952    198108         0      3755      3757     11570     11572     53501     53503     85054     85055 
dram[9]:    116317    116319    150474    150477    181955    181956         0         0      3760      3763     11574     11577     53506     53507     85057     85059 
dram[10]:    116313    116316    150470    150472    142655    181952         0         0    225117      3757     11570     11572    167028     53503     85054     85055 
average row accesses per activate:
dram[0]:  9.000000 16.000000 16.000000 16.000000  3.000000  3.000000      -nan      -nan 10.000000  6.000000 16.000000 16.000000  9.000000 16.000000 16.000000 16.000000 
dram[1]: 16.000000 16.000000 16.000000 16.000000  3.000000  2.000000  2.000000      -nan 10.000000 10.000000  4.500000 16.000000 16.000000 16.000000 16.000000  9.000000 
dram[2]: 16.000000 16.000000  5.666667 16.000000  3.000000  3.000000      -nan      -nan 10.000000  5.500000 16.000000 16.000000 16.000000 16.000000 16.000000 16.000000 
dram[3]: 16.000000 16.000000  8.500000 16.000000  5.000000  3.000000      -nan      -nan 10.000000 10.000000 16.000000  9.000000 16.000000 16.000000 16.000000 16.000000 
dram[4]:  8.500000 16.000000 16.000000 16.000000  3.000000  3.000000      -nan      -nan 10.000000 10.000000 16.000000 16.000000 16.000000 16.000000  8.500000  8.500000 
dram[5]: 16.000000 16.000000 16.000000 16.000000  3.000000  3.000000      -nan      -nan 10.000000 10.000000 16.000000 16.000000 16.000000 16.000000  8.500000  8.500000 
dram[6]: 16.000000 16.000000 16.000000 16.000000  3.000000  3.000000  2.000000      -nan 10.000000 10.000000 16.000000 16.000000  9.000000 16.000000 16.000000 16.000000 
dram[7]: 16.000000 16.000000  8.500000 16.000000  3.000000  2.000000      -nan      -nan 10.000000 10.000000 16.000000 16.000000 16.000000 16.000000 16.000000 16.000000 
dram[8]: 16.000000 16.000000 16.000000 16.000000  2.000000  2.000000  2.000000      -nan 10.000000 10.000000 16.000000 16.000000 16.000000 16.000000 16.000000 16.000000 
dram[9]: 16.000000 16.000000  8.500000 16.000000  2.000000  2.000000      -nan      -nan 11.000000 11.000000 16.000000 16.000000 16.000000 16.000000 16.000000 16.000000 
dram[10]: 16.000000 16.000000 16.000000 16.000000  4.000000  2.000000      -nan      -nan  6.500000 11.000000 16.000000 16.000000  9.000000 16.000000 16.000000 16.000000 
average row locality = 2084/181 = 11.513812
number of total memory accesses made:
dram[0]:         0         0         0         0         0         0         0         0         0         0         0         0         0         0         0         0 
dram[1]:         0         0         0         0         0         0         0         0         0         0         0         0         0         0         0         0 
dram[2]:         0         0         0         0         0         0         0         0         0         0         0         0         0         0         0         0 
dram[3]:         0         0         0         0         0         0         0         0         0         0         0         0         0         0         0         0 
dram[4]:         0         0         0         0         0         0         0         0         0         0         0         0         0         0         0         0 
dram[5]:         0         0         0         0         0         0         0         0         0         0         0         0         0         0         0         0 
dram[6]:         0         0         0         0         0         0         0         0         0         0         0         0         0         0         0         0 
dram[7]:         0         0         0         0         0         0         0         0         0         0         0         0         0         0         0         0 
dram[8]:         0         0         0         0         0         0         0         0         0         0         0         0         0         0         0         0 
dram[9]:         0         0         0         0         0         0         0         0         0         0         0         0         0         0         0         0 
dram[10]:         0         0         0         0         0         0         0         0         0         0         0         0         0         0         0         0 
total accesses: 0
min_bank_accesses = 0!
min_chip_accesses = 0!
number of total read accesses:
dram[0]:        18        16        16        16         3         3         0         0        10        11        16        16        17        16        16        16 
dram[1]:        16        16        16        16         3         4         1         0        10        10        18        16        16        16        16        17 
dram[2]:        16        16        17        16         3         3         0         0        10        11        16        16        16        16        16        16 
dram[3]:        16        16        17        16         4         3         0         0        10        10        16        17        16        16        16        16 
dram[4]:        17        16        16        16         3         3         0         0        10        10        16        16        16        16        17        17 
dram[5]:        16        16        16        16         3         3         0         0        10        10        16        16        16        16        17        17 
dram[6]:        16        16        16        16         3         3         1         0        10        10        16        16        17        16        16        16 
dram[7]:        16        16        17        16         3         2         0         0        10        10        16        16        16        16        16        16 
dram[8]:        16        16        16        16         3         2         1         0        10        10        16        16        16        16        16        16 
dram[9]:        16        16        17        16         2         2         0         0        11        11        16        16        16        16        16        16 
dram[10]:        16        16        16        16         3         2         0         0        12        11        16        16        17        16        16        16 
total reads: 2071
min_bank_accesses = 0!
chip skew: 191/186 = 1.03
number of total write accesses:
dram[0]:         0         0         0         0         0         0         0         0         0         1         0         0         1         0         0         0 
dram[1]:         0         0         0         0         0         0         1         0         0         0         0         0         0         0         0         1 
dram[2]:         0         0         0         0         0         0         0         0         0         0         0         0         0         0         0         0 
dram[3]:         0         0         0         0         1         0         0         0         0         0         0         1         0         0         0         0 
dram[4]:         0         0         0         0         0         0         0         0         0         0         0         0         0         0         0         0 
dram[5]:         0         0         0         0         0         0         0         0         0         0         0         0         0         0         0         0 
dram[6]:         0         0         0         0         0         0         1         0         0         0         0         0         1         0         0         0 
dram[7]:         0         0         0         0         0         0         0         0         0         0         0         0         0         0         0         0 
dram[8]:         0         0         0         0         1         0         1         0         0         0         0         0         0         0         0         0 
dram[9]:         0         0         0         0         0         0         0         0         0         0         0         0         0         0         0         0 
dram[10]:         0         0         0         0         1         0         0         0         1         0         0         0         1         0         0         0 
total reads: 13
min_bank_accesses = 0!
min_chip_accesses = 0!
average mf latency per bank:
dram[0]:      63552     69666     76160     76108     76897     76846    none      none       54315     45734     81641     81606     83191     92047     74922     74847
dram[1]:      71036     70971     76808     76764     76858     59561     13035    none       57450     57461     77321     82227     92764     92693     75566     67419
dram[2]:      71705     71626     75355     77410     76903     76854    none      none       49107     45361     75127     75096     93424     93351     76223     76151
dram[3]:      72340     72272     74792     78056     47222     76804    none      none       54328     54320     75772     67481     94062     93999     76869     76800
dram[4]:      69174     72927     78759     78705     76907     76866    none      none       54316     54304     71193     71147     85677     85606     72969     72899
dram[5]:      73640     73574     79404     79356     80321     80268    none      none       54316     54314     73799     73743     86302     86231     73559     73493
dram[6]:      64614     64533     80071     80014     80367     80318      2769    none       49085     49091     74432     74388     77446     86873     78787     78720
dram[7]:      65240     65165     76435     80676     73385     78664    none      none       53254     53262     75092     75049     87593     87528     79414     79339
dram[8]:      65874     65801     71687     71636     40091     78643      2769    none       55357     55364     73769     73734     88243     88178     80695     80629
dram[9]:      66522     66444     69693     72222     78704     78655    none      none       52382     52377     79643     79598     88895     88832     81358     81283
dram[10]:      67154     67084     72922     72877     44477     78356    none      none       44513     52349     80292     80257     79759     89482     81996     81932
maximum mf latency per bank:
dram[0]:      39171     39161     39173     39163     20988     20981         0         0     23745     23751     36712     36685     36524     36511     33931     33913
dram[1]:      39133     39130     39134     39132     20962     20944     26070         0     23735     23746     38860     36656     36524     36514     33961     33951
dram[2]:      39171     39161     41588     39163     20988     20981         0         0     23736     23743     36710     36695     36524     36514     33923     33920
dram[3]:      39133     39130     39134     39132     20962     20944         0         0     23736     23741     36721     36708     36524     36517     33961     33951
dram[4]:      39171     39157     39173     39163     20988     20981         0         0     23735     23738     36703     36677     36489     36482     33923     33920
dram[5]:      39171     39163     39134     39132     20988     20984         0         0     23733     23738     36711     36684     36524     36513     33961     33948
dram[6]:      39133     39132     39173     39163     20988     20984      5538         0     23732     23735     36699     36688     36491     36482     33961     33951
dram[7]:      39171     39161     39134     39132     20988     20986         0         0     23727     23732     36709     36701     36524     36513     33961     33951
dram[8]:      39133     39130     36568     36560     20958     20944      5538         0     23745     23752     36673     36664     36491     36482     33961     33951
dram[9]:      39171     39161     39173     39163     20988     20981         0         0     23752     23757     36705     36691     36524     36513     33961     33951
dram[10]:      39133     39130     39134     39132     21071     20944         0         0     23738     23744     36677     36659     36491     36482     33961     33953
Memory Partition 0: 
Cache L2_bank_000:
MSHR contents

Cache L2_bank_001:
MSHR contents
MSHR: tag=0xc025e580, atomic=0 1 entries : 0x7f5ce6776690 :  mf: uid=167213, sid01:w00, part=0, addr=0xc025e5c0, load , size=32, unknown  status = IN_PARTITION_DRAM (456181), 

In Dram Latency Queue (total = 0): 
DRAM[0]: 16 bks, busW=4 BL=8 CL=12, tRRD=2 tCCD=6, tRCD=12 tRAS=28 tRP=12 tRC=40
n_cmd=429853 n_nop=429071 n_act=18 n_pre=4 n_req=192 n_rd=758 n_write=2 bw_util=0.003536
n_activity=2430 dram_eff=0.6255
bk0: 72a 429653i bk1: 64a 429635i bk2: 64a 429725i bk3: 64a 429647i bk4: 12a 429819i bk5: 12a 429804i bk6: 0a 429855i bk7: 0a 429857i bk8: 40a 429772i bk9: 42a 429674i bk10: 64a 429725i bk11: 64a 429636i bk12: 68a 429685i bk13: 64a 429633i bk14: 64a 429712i bk15: 64a 429636i 
dram_util_bins: 0 0 0 0 0 0 0 0 0 0
dram_eff_bins: 0 0 0 0 0 0 0 0 0 0
mrqq: max=2 avg=0.00113527
Memory Partition 1: 
Cache L2_bank_002:
MSHR contents

Cache L2_bank_003:
MSHR contents

In Dram Latency Queue (total = 0): 
DRAM[1]: 16 bks, busW=4 BL=8 CL=12, tRRD=2 tCCD=6, tRCD=12 tRAS=28 tRP=12 tRC=40
n_cmd=429853 n_nop=429062 n_act=20 n_pre=5 n_req=193 n_rd=764 n_write=2 bw_util=0.003564
n_activity=2512 dram_eff=0.6099
bk0: 64a 429722i bk1: 64a 429637i bk2: 64a 429724i bk3: 64a 429642i bk4: 12a 429820i bk5: 16a 429772i bk6: 4a 429828i bk7: 0a 429854i bk8: 40a 429769i bk9: 40a 429713i bk10: 72a 429639i bk11: 64a 429640i bk12: 64a 429716i bk13: 64a 429639i bk14: 64a 429723i bk15: 68a 429596i 
dram_util_bins: 0 0 0 0 0 0 0 0 0 0
dram_eff_bins: 0 0 0 0 0 0 0 0 0 0
mrqq: max=2 avg=0.00110736
Memory Partition 2: 
Cache L2_bank_004:
MSHR contents

Cache L2_bank_005:
MSHR contents

In Dram Latency Queue (total = 0): 
DRAM[2]: 16 bks, busW=4 BL=8 CL=12, tRRD=2 tCCD=6, tRCD=12 tRAS=28 tRP=12 tRC=40
n_cmd=429853 n_nop=429081 n_act=17 n_pre=3 n_req=188 n_rd=752 n_write=0 bw_util=0.003499
n_activity=2360 dram_eff=0.6373
bk0: 64a 429722i bk1: 64a 429637i bk2: 68a 429667i bk3: 64a 429636i bk4: 12a 429818i bk5: 12a 429806i bk6: 0a 429856i bk7: 0a 429856i bk8: 40a 429770i bk9: 44a 429679i bk10: 64a 429717i bk11: 64a 429633i bk12: 64a 429724i bk13: 64a 429636i bk14: 64a 429722i bk15: 64a 429632i 
dram_util_bins: 0 0 0 0 0 0 0 0 0 0
dram_eff_bins: 0 0 0 0 0 0 0 0 0 0
mrqq: max=2 avg=0.00108177
Memory Partition 3: 
Cache L2_bank_006:
MSHR contents

Cache L2_bank_007:
MSHR contents

In Dram Latency Queue (total = 0): 
DRAM[3]: 16 bks, busW=4 BL=8 CL=12, tRRD=2 tCCD=6, tRCD=12 tRAS=28 tRP=12 tRC=40
n_cmd=429853 n_nop=429077 n_act=16 n_pre=2 n_req=191 n_rd=756 n_write=2 bw_util=0.003527
n_activity=2345 dram_eff=0.6465
bk0: 64a 429716i bk1: 64a 429643i bk2: 68a 429693i bk3: 64a 429631i bk4: 16a 429801i bk5: 12a 429801i bk6: 0a 429852i bk7: 0a 429854i bk8: 40a 429762i bk9: 40a 429715i bk10: 64a 429726i bk11: 68a 429596i bk12: 64a 429715i bk13: 64a 429635i bk14: 64a 429716i bk15: 64a 429636i 
dram_util_bins: 0 0 0 0 0 0 0 0 0 0
dram_eff_bins: 0 0 0 0 0 0 0 0 0 0
mrqq: max=2 avg=0.00109805
Memory Partition 4: 
Cache L2_bank_008:
MSHR contents

Cache L2_bank_009:
MSHR contents

In Dram Latency Queue (total = 0): 
DRAM[4]: 16 bks, busW=4 BL=8 CL=12, tRRD=2 tCCD=6, tRCD=12 tRAS=28 tRP=12 tRC=40
n_cmd=429853 n_nop=429077 n_act=17 n_pre=3 n_req=189 n_rd=756 n_write=0 bw_util=0.003517
n_activity=2366 dram_eff=0.6391
bk0: 68a 429681i bk1: 64a 429635i bk2: 64a 429714i bk3: 64a 429637i bk4: 12a 429818i bk5: 12a 429803i bk6: 0a 429853i bk7: 0a 429856i bk8: 40a 429770i bk9: 40a 429718i bk10: 64a 429725i bk11: 64a 429636i bk12: 64a 429717i bk13: 64a 429644i bk14: 68a 429685i bk15: 68a 429601i 
dram_util_bins: 0 0 0 0 0 0 0 0 0 0
dram_eff_bins: 0 0 0 0 0 0 0 0 0 0
mrqq: max=2 avg=0.00112364
Memory Partition 5: 
Cache L2_bank_010:
MSHR contents

Cache L2_bank_011:
MSHR contents

In Dram Latency Queue (total = 0): 
DRAM[5]: 16 bks, busW=4 BL=8 CL=12, tRRD=2 tCCD=6, tRCD=12 tRAS=28 tRP=12 tRC=40
n_cmd=429853 n_nop=429083 n_act=16 n_pre=2 n_req=188 n_rd=752 n_write=0 bw_util=0.003499
n_activity=2364 dram_eff=0.6362
bk0: 64a 429712i bk1: 64a 429637i bk2: 64a 429715i bk3: 64a 429636i bk4: 12a 429820i bk5: 12a 429803i bk6: 0a 429854i bk7: 0a 429855i bk8: 40a 429761i bk9: 40a 429716i bk10: 64a 429716i bk11: 64a 429646i bk12: 64a 429718i bk13: 64a 429646i bk14: 68a 429686i bk15: 68a 429603i 
dram_util_bins: 0 0 0 0 0 0 0 0 0 0
dram_eff_bins: 0 0 0 0 0 0 0 0 0 0
mrqq: max=2 avg=0.000763052
Memory Partition 6: 
Cache L2_bank_012:
MSHR contents

Cache L2_bank_013:
MSHR contents

In Dram Latency Queue (total = 0): 
DRAM[6]: 16 bks, busW=4 BL=8 CL=12, tRRD=2 tCCD=6, tRCD=12 tRAS=28 tRP=12 tRC=40
n_cmd=429853 n_nop=429082 n_act=16 n_pre=1 n_req=190 n_rd=752 n_write=2 bw_util=0.003508
n_activity=2356 dram_eff=0.6401
bk0: 64a 429716i bk1: 64a 429645i bk2: 64a 429716i bk3: 64a 429639i bk4: 12a 429821i bk5: 12a 429806i bk6: 4a 429830i bk7: 0a 429855i bk8: 40a 429770i bk9: 40a 429718i bk10: 64a 429715i bk11: 64a 429641i bk12: 68a 429679i bk13: 64a 429633i bk14: 64a 429713i bk15: 64a 429633i 
dram_util_bins: 0 0 0 0 0 0 0 0 0 0
dram_eff_bins: 0 0 0 0 0 0 0 0 0 0
mrqq: max=2 avg=0.000830516
Memory Partition 7: 
Cache L2_bank_014:
MSHR contents

Cache L2_bank_015:
MSHR contents

In Dram Latency Queue (total = 0): 
DRAM[7]: 16 bks, busW=4 BL=8 CL=12, tRRD=2 tCCD=6, tRCD=12 tRAS=28 tRP=12 tRC=40
n_cmd=429853 n_nop=429093 n_act=15 n_pre=1 n_req=186 n_rd=744 n_write=0 bw_util=0.003462
n_activity=2325 dram_eff=0.64
bk0: 64a 429716i bk1: 64a 429648i bk2: 68a 429685i bk3: 64a 429636i bk4: 12a 429819i bk5: 8a 429810i bk6: 0a 429853i bk7: 0a 429855i bk8: 40a 429770i bk9: 40a 429716i bk10: 64a 429725i bk11: 64a 429641i bk12: 64a 429718i bk13: 64a 429636i bk14: 64a 429715i bk15: 64a 429634i 
dram_util_bins: 0 0 0 0 0 0 0 0 0 0
dram_eff_bins: 0 0 0 0 0 0 0 0 0 0
mrqq: max=2 avg=0.000709545
Memory Partition 8: 
Cache L2_bank_016:
MSHR contents

Cache L2_bank_017:
MSHR contents

In Dram Latency Queue (total = 0): 
DRAM[8]: 16 bks, busW=4 BL=8 CL=12, tRRD=2 tCCD=6, tRCD=12 tRAS=28 tRP=12 tRC=40
n_cmd=429853 n_nop=429090 n_act=16 n_pre=1 n_req=188 n_rd=744 n_write=2 bw_util=0.003471
n_activity=2346 dram_eff=0.636
bk0: 64a 429723i bk1: 64a 429646i bk2: 64a 429725i bk3: 64a 429641i bk4: 12a 429790i bk5: 8a 429819i bk6: 4a 429828i bk7: 0a 429854i bk8: 40a 429769i bk9: 40a 429718i bk10: 64a 429725i bk11: 64a 429634i bk12: 64a 429725i bk13: 64a 429635i bk14: 64a 429722i bk15: 64a 429632i 
dram_util_bins: 0 0 0 0 0 0 0 0 0 0
dram_eff_bins: 0 0 0 0 0 0 0 0 0 0
mrqq: max=2 avg=0.000842148
Memory Partition 9: 
Cache L2_bank_018:
MSHR contents

Cache L2_bank_019:
MSHR contents

In Dram Latency Queue (total = 0): 
DRAM[9]: 16 bks, busW=4 BL=8 CL=12, tRRD=2 tCCD=6, tRCD=12 tRAS=28 tRP=12 tRC=40
n_cmd=429853 n_nop=429089 n_act=15 n_pre=1 n_req=187 n_rd=748 n_write=0 bw_util=0.00348
n_activity=2355 dram_eff=0.6352
bk0: 64a 429723i bk1: 64a 429646i bk2: 68a 429693i bk3: 64a 429647i bk4: 8a 429827i bk5: 8a 429818i bk6: 0a 429853i bk7: 0a 429855i bk8: 44a 429755i bk9: 44a 429700i bk10: 64a 429726i bk11: 64a 429639i bk12: 64a 429724i bk13: 64a 429635i bk14: 64a 429723i bk15: 64a 429634i 
dram_util_bins: 0 0 0 0 0 0 0 0 0 0
dram_eff_bins: 0 0 0 0 0 0 0 0 0 0
mrqq: max=1 avg=0.000709545
Memory Partition 10: 
Cache L2_bank_020:
MSHR contents

Cache L2_bank_021:
MSHR contents

In Dram Latency Queue (total = 0): 
DRAM[10]: 16 bks, busW=4 BL=8 CL=12, tRRD=2 tCCD=6, tRCD=12 tRAS=28 tRP=12 tRC=40
n_cmd=429853 n_nop=429076 n_act=16 n_pre=2 n_req=192 n_rd=756 n_write=3 bw_util=0.003531
n_activity=2421 dram_eff=0.627
bk0: 64a 429723i bk1: 64a 429637i bk2: 64a 429724i bk3: 64a 429644i bk4: 12a 429816i bk5: 8a 429822i bk6: 0a 429853i bk7: 0a 429854i bk8: 48a 429717i bk9: 44a 429703i bk10: 64a 429726i bk11: 64a 429635i bk12: 68a 429686i bk13: 64a 429633i bk14: 64a 429721i bk15: 64a 429634i 
dram_util_bins: 0 0 0 0 0 0 0 0 0 0
dram_eff_bins: 0 0 0 0 0 0 0 0 0 0
mrqq: max=1 avg=0.000844475

========= L2 cache stats =========
L2_cache_bank[0]: Access = 402, Miss = 96, Miss_rate = 0.239, Pending_hits = 306, Reservation_fails = 0
L2_cache_bank[1]: Access = 373, Miss = 94, Miss_rate = 0.252, Pending_hits = 279, Reservation_fails = 0
L2_cache_bank[2]: Access = 396, Miss = 96, Miss_rate = 0.242, Pending_hits = 279, Reservation_fails = 0
L2_cache_bank[3]: Access = 374, Miss = 95, Miss_rate = 0.254, Pending_hits = 279, Reservation_fails = 0
L2_cache_bank[4]: Access = 373, Miss = 94, Miss_rate = 0.252, Pending_hits = 279, Reservation_fails = 0
L2_cache_bank[5]: Access = 373, Miss = 94, Miss_rate = 0.252, Pending_hits = 279, Reservation_fails = 0
L2_cache_bank[6]: Access = 381, Miss = 95, Miss_rate = 0.249, Pending_hits = 279, Reservation_fails = 0
L2_cache_bank[7]: Access = 373, Miss = 94, Miss_rate = 0.252, Pending_hits = 279, Reservation_fails = 0
L2_cache_bank[8]: Access = 401, Miss = 95, Miss_rate = 0.237, Pending_hits = 306, Reservation_fails = 0
L2_cache_bank[9]: Access = 400, Miss = 94, Miss_rate = 0.235, Pending_hits = 306, Reservation_fails = 0
L2_cache_bank[10]: Access = 373, Miss = 94, Miss_rate = 0.252, Pending_hits = 279, Reservation_fails = 0
L2_cache_bank[11]: Access = 400, Miss = 94, Miss_rate = 0.235, Pending_hits = 286, Reservation_fails = 0
L2_cache_bank[12]: Access = 374, Miss = 95, Miss_rate = 0.254, Pending_hits = 279, Reservation_fails = 0
L2_cache_bank[13]: Access = 372, Miss = 93, Miss_rate = 0.250, Pending_hits = 279, Reservation_fails = 0
L2_cache_bank[14]: Access = 372, Miss = 94, Miss_rate = 0.253, Pending_hits = 278, Reservation_fails = 0
L2_cache_bank[15]: Access = 368, Miss = 92, Miss_rate = 0.250, Pending_hits = 276, Reservation_fails = 0
L2_cache_bank[16]: Access = 370, Miss = 94, Miss_rate = 0.254, Pending_hits = 276, Reservation_fails = 0
L2_cache_bank[17]: Access = 368, Miss = 92, Miss_rate = 0.250, Pending_hits = 276, Reservation_fails = 0
L2_cache_bank[18]: Access = 374, Miss = 94, Miss_rate = 0.251, Pending_hits = 279, Reservation_fails = 0
L2_cache_bank[19]: Access = 372, Miss = 93, Miss_rate = 0.250, Pending_hits = 279, Reservation_fails = 0
L2_cache_bank[20]: Access = 375, Miss = 96, Miss_rate = 0.256, Pending_hits = 279, Reservation_fails = 0
L2_cache_bank[21]: Access = 372, Miss = 93, Miss_rate = 0.250, Pending_hits = 279, Reservation_fails = 0
L2_total_cache_accesses = 8336
L2_total_cache_misses = 2071
L2_total_cache_miss_rate = 0.2484
L2_total_cache_pending_hits = 6216
L2_total_cache_reservation_fails = 0
L2_total_cache_breakdown:
	L2_cache_stats_breakdown[GLOBAL_ACC_R][HIT] = 27
	L2_cache_stats_breakdown[GLOBAL_ACC_R][HIT_RESERVED] = 6128
	L2_cache_stats_breakdown[GLOBAL_ACC_R][MISS] = 2053
	L2_cache_stats_breakdown[GLOBAL_ACC_R][RESERVATION_FAIL] = 0
	L2_cache_stats_breakdown[LOCAL_ACC_R][HIT] = 0
	L2_cache_stats_breakdown[LOCAL_ACC_R][HIT_RESERVED] = 0
	L2_cache_stats_breakdown[LOCAL_ACC_R][MISS] = 0
	L2_cache_stats_breakdown[LOCAL_ACC_R][RESERVATION_FAIL] = 0
	L2_cache_stats_breakdown[CONST_ACC_R][HIT] = 0
	L2_cache_stats_breakdown[CONST_ACC_R][HIT_RESERVED] = 27
	L2_cache_stats_breakdown[CONST_ACC_R][MISS] = 1
	L2_cache_stats_breakdown[CONST_ACC_R][RESERVATION_FAIL] = 0
	L2_cache_stats_breakdown[TEXTURE_ACC_R][HIT] = 0
	L2_cache_stats_breakdown[TEXTURE_ACC_R][HIT_RESERVED] = 0
	L2_cache_stats_breakdown[TEXTURE_ACC_R][MISS] = 0
	L2_cache_stats_breakdown[TEXTURE_ACC_R][RESERVATION_FAIL] = 0
	L2_cache_stats_breakdown[GLOBAL_ACC_W][HIT] = 2
	L2_cache_stats_breakdown[GLOBAL_ACC_W][HIT_RESERVED] = 0
	L2_cache_stats_breakdown[GLOBAL_ACC_W][MISS] = 13
	L2_cache_stats_breakdown[GLOBAL_ACC_W][RESERVATION_FAIL] = 0
	L2_cache_stats_breakdown[LOCAL_ACC_W][HIT] = 0
	L2_cache_stats_breakdown[LOCAL_ACC_W][HIT_RESERVED] = 0
	L2_cache_stats_breakdown[LOCAL_ACC_W][MISS] = 0
	L2_cache_stats_breakdown[LOCAL_ACC_W][RESERVATION_FAIL] = 0
	L2_cache_stats_breakdown[L1_WRBK_ACC][HIT] = 0
	L2_cache_stats_breakdown[L1_WRBK_ACC][HIT_RESERVED] = 0
	L2_cache_stats_breakdown[L1_WRBK_ACC][MISS] = 0
	L2_cache_stats_breakdown[L1_WRBK_ACC][RESERVATION_FAIL] = 0
	L2_cache_stats_breakdown[L2_WRBK_ACC][HIT] = 0
	L2_cache_stats_breakdown[L2_WRBK_ACC][HIT_RESERVED] = 0
	L2_cache_stats_breakdown[L2_WRBK_ACC][MISS] = 0
	L2_cache_stats_breakdown[L2_WRBK_ACC][RESERVATION_FAIL] = 0
	L2_cache_stats_breakdown[INST_ACC_R][HIT] = 20
	L2_cache_stats_breakdown[INST_ACC_R][HIT_RESERVED] = 61
	L2_cache_stats_breakdown[INST_ACC_R][MISS] = 4
	L2_cache_stats_breakdown[INST_ACC_R][RESERVATION_FAIL] = 0
	L2_cache_stats_breakdown[L1_WR_ALLOC_R][HIT] = 0
	L2_cache_stats_breakdown[L1_WR_ALLOC_R][HIT_RESERVED] = 0
	L2_cache_stats_breakdown[L1_WR_ALLOC_R][MISS] = 0
	L2_cache_stats_breakdown[L1_WR_ALLOC_R][RESERVATION_FAIL] = 0
	L2_cache_stats_breakdown[L2_WR_ALLOC_R][HIT] = 0
	L2_cache_stats_breakdown[L2_WR_ALLOC_R][HIT_RESERVED] = 0
	L2_cache_stats_breakdown[L2_WR_ALLOC_R][MISS] = 0
	L2_cache_stats_breakdown[L2_WR_ALLOC_R][RESERVATION_FAIL] = 0
	L2_cache_stats_breakdown[GLOBAL_ACC_R][TOTAL_ACCESS] = 8208
	L2_cache_stats_breakdown[CONST_ACC_R][TOTAL_ACCESS] = 28
	L2_cache_stats_breakdown[GLOBAL_ACC_W][TOTAL_ACCESS] = 15
	L2_cache_stats_breakdown[INST_ACC_R][TOTAL_ACCESS] = 85
L2_cache_data_port_util = 0.000
L2_cache_fill_port_util = 0.002

icnt_total_pkts_mem_to_simt=16940
icnt_total_pkts_simt_to_mem=8351
LD_mem_lat_dist  0 0 0 0 0 0 0 0 0 0 0 0 0 0 0 0 0 0 0 0 0 0 0 0 0 0 0
ST_mem_lat_dist  0 0 0 0 0 0 0 0 0 0 0 0 0 0 0 0 0 0 0 0 0 0 0 0 0 0 0
----------------------------Interconnect-DETAILS--------------------------------
Class 0:
Packet latency average = 11.0353
	minimum = 6
	maximum = 60
Network latency average = 10.6884
	minimum = 6
	maximum = 60
Slowest packet = 27
Flit latency average = 11.4988
	minimum = 6
	maximum = 60
Slowest flit = 27
Fragmentation average = 0
	minimum = 0
	maximum = 0
Injected packet rate average = 0.000720188
	minimum = 0.000630683 (at node 0)
	maximum = 0.000868269 (at node 28)
Accepted packet rate average = 0.000720188
	minimum = 0.000630683 (at node 0)
	maximum = 0.000868269 (at node 28)
Injected flit rate average = 0.00109251
	minimum = 0.000630683 (at node 0)
	maximum = 0.00191365 (at node 36)
Accepted flit rate average= 0.00109251
	minimum = 0.000794834 (at node 43)
	maximum = 0.00135208 (at node 2)
Injected packet length average = 1.51697
Accepted packet length average = 1.51697
Total in-flight flits = 0 (0 measured)
====== Overall Traffic Statistics ======
====== Traffic class 0 ======
Packet latency average = 11.0353 (1 samples)
	minimum = 6 (1 samples)
	maximum = 60 (1 samples)
Network latency average = 10.6884 (1 samples)
	minimum = 6 (1 samples)
	maximum = 60 (1 samples)
Flit latency average = 11.4988 (1 samples)
	minimum = 6 (1 samples)
	maximum = 60 (1 samples)
Fragmentation average = 0 (1 samples)
	minimum = 0 (1 samples)
	maximum = 0 (1 samples)
Injected packet rate average = 0.000720188 (1 samples)
	minimum = 0.000630683 (1 samples)
	maximum = 0.000868269 (1 samples)
Accepted packet rate average = 0.000720188 (1 samples)
	minimum = 0.000630683 (1 samples)
	maximum = 0.000868269 (1 samples)
Injected flit rate average = 0.00109251 (1 samples)
	minimum = 0.000630683 (1 samples)
	maximum = 0.00191365 (1 samples)
Accepted flit rate average = 0.00109251 (1 samples)
	minimum = 0.000794834 (1 samples)
	maximum = 0.00135208 (1 samples)
Injected packet size average = 1.51697 (1 samples)
Accepted packet size average = 1.51697 (1 samples)
Hops average = 1 (1 samples)
----------------------------END-of-Interconnect-DETAILS-------------------------


gpgpu_simulation_time = 0 days, 0 hrs, 3 min, 12 sec (192 sec)
gpgpu_simulation_rate = 25886 (inst/sec)
gpgpu_simulation_rate = 2375 (cycle/sec)

GPGPU-Sim PTX: cudaLaunch for 0x0x401649 (mode=performance simulation) on stream 0
GPGPU-Sim PTX: pushing kernel '_Z7Kernel2PbS_S_S_i' to stream 0, gridDim= (511,1,1) blockDim = (512,1,1) 
GPGPU-Sim uArch: Shader 11 bind to kernel 2 '_Z7Kernel2PbS_S_S_i'
GPGPU-Sim uArch: CTA/core = 4, limited by: threads
GPGPU-Sim uArch: Shader 12 bind to kernel 2 '_Z7Kernel2PbS_S_S_i'
GPGPU-Sim uArch: Shader 13 bind to kernel 2 '_Z7Kernel2PbS_S_S_i'
GPGPU-Sim uArch: Shader 14 bind to kernel 2 '_Z7Kernel2PbS_S_S_i'
GPGPU-Sim uArch: Shader 15 bind to kernel 2 '_Z7Kernel2PbS_S_S_i'
GPGPU-Sim uArch: Shader 16 bind to kernel 2 '_Z7Kernel2PbS_S_S_i'
GPGPU-Sim uArch: Shader 17 bind to kernel 2 '_Z7Kernel2PbS_S_S_i'
GPGPU-Sim uArch: Shader 18 bind to kernel 2 '_Z7Kernel2PbS_S_S_i'
GPGPU-Sim uArch: Shader 19 bind to kernel 2 '_Z7Kernel2PbS_S_S_i'
GPGPU-Sim uArch: Shader 20 bind to kernel 2 '_Z7Kernel2PbS_S_S_i'
GPGPU-Sim uArch: Shader 21 bind to kernel 2 '_Z7Kernel2PbS_S_S_i'
GPGPU-Sim uArch: Shader 22 bind to kernel 2 '_Z7Kernel2PbS_S_S_i'
GPGPU-Sim uArch: Shader 23 bind to kernel 2 '_Z7Kernel2PbS_S_S_i'
GPGPU-Sim uArch: Shader 24 bind to kernel 2 '_Z7Kernel2PbS_S_S_i'
GPGPU-Sim uArch: Shader 25 bind to kernel 2 '_Z7Kernel2PbS_S_S_i'
GPGPU-Sim uArch: Shader 26 bind to kernel 2 '_Z7Kernel2PbS_S_S_i'
GPGPU-Sim uArch: Shader 27 bind to kernel 2 '_Z7Kernel2PbS_S_S_i'
GPGPU-Sim uArch: Shader 0 bind to kernel 2 '_Z7Kernel2PbS_S_S_i'
GPGPU-Sim uArch: Shader 1 bind to kernel 2 '_Z7Kernel2PbS_S_S_i'
GPGPU-Sim uArch: Shader 2 bind to kernel 2 '_Z7Kernel2PbS_S_S_i'
GPGPU-Sim uArch: Shader 3 bind to kernel 2 '_Z7Kernel2PbS_S_S_i'
GPGPU-Sim uArch: Shader 4 bind to kernel 2 '_Z7Kernel2PbS_S_S_i'
GPGPU-Sim uArch: Shader 5 bind to kernel 2 '_Z7Kernel2PbS_S_S_i'
GPGPU-Sim uArch: Shader 6 bind to kernel 2 '_Z7Kernel2PbS_S_S_i'
GPGPU-Sim uArch: Shader 7 bind to kernel 2 '_Z7Kernel2PbS_S_S_i'
GPGPU-Sim uArch: Shader 8 bind to kernel 2 '_Z7Kernel2PbS_S_S_i'
GPGPU-Sim uArch: Shader 9 bind to kernel 2 '_Z7Kernel2PbS_S_S_i'
GPGPU-Sim uArch: Shader 10 bind to kernel 2 '_Z7Kernel2PbS_S_S_i'
GPGPU-Sim uArch: Shader 11 bind to kernel 2 '_Z7Kernel2PbS_S_S_i'
GPGPU-Sim uArch: Shader 12 bind to kernel 2 '_Z7Kernel2PbS_S_S_i'
GPGPU-Sim uArch: Shader 13 bind to kernel 2 '_Z7Kernel2PbS_S_S_i'
GPGPU-Sim uArch: Shader 14 bind to kernel 2 '_Z7Kernel2PbS_S_S_i'
GPGPU-Sim uArch: Shader 23 bind to kernel 2 '_Z7Kernel2PbS_S_S_i'
GPGPU-Sim uArch: Shader 24 bind to kernel 2 '_Z7Kernel2PbS_S_S_i'
GPGPU-Sim uArch: Shader 25 bind to kernel 2 '_Z7Kernel2PbS_S_S_i'
GPGPU-Sim uArch: Shader 26 bind to kernel 2 '_Z7Kernel2PbS_S_S_i'
GPGPU-Sim uArch: Shader 27 bind to kernel 2 '_Z7Kernel2PbS_S_S_i'
GPGPU-Sim uArch: Shader 0 bind to kernel 2 '_Z7Kernel2PbS_S_S_i'
GPGPU-Sim uArch: Shader 1 bind to kernel 2 '_Z7Kernel2PbS_S_S_i'
GPGPU-Sim uArch: Shader 2 bind to kernel 2 '_Z7Kernel2PbS_S_S_i'
GPGPU-Sim uArch: Shader 3 bind to kernel 2 '_Z7Kernel2PbS_S_S_i'
GPGPU-Sim uArch: Shader 4 bind to kernel 2 '_Z7Kernel2PbS_S_S_i'
GPGPU-Sim uArch: Shader 5 bind to kernel 2 '_Z7Kernel2PbS_S_S_i'
GPGPU-Sim uArch: Shader 6 bind to kernel 2 '_Z7Kernel2PbS_S_S_i'
GPGPU-Sim uArch: Shader 7 bind to kernel 2 '_Z7Kernel2PbS_S_S_i'
GPGPU-Sim uArch: Shader 8 bind to kernel 2 '_Z7Kernel2PbS_S_S_i'
GPGPU-Sim uArch: Shader 9 bind to kernel 2 '_Z7Kernel2PbS_S_S_i'
GPGPU-Sim uArch: Shader 10 bind to kernel 2 '_Z7Kernel2PbS_S_S_i'
GPGPU-Sim uArch: Shader 11 bind to kernel 2 '_Z7Kernel2PbS_S_S_i'
GPGPU-Sim uArch: Shader 12 bind to kernel 2 '_Z7Kernel2PbS_S_S_i'
GPGPU-Sim uArch: Shader 13 bind to kernel 2 '_Z7Kernel2PbS_S_S_i'
[...]
F:  8498643----T:  8501248 	 St: c0776000 Sz: 4096 	 Sm: 0 	 T: memcpy_h2d(1.758947)
F:  8501248----T:  8503853 	 St: c078c000 Sz: 4096 	 Sm: 0 	 T: memcpy_h2d(1.758947)
F:  8503853----T:  8506458 	 St: c0750000 Sz: 4096 	 Sm: 0 	 T: memcpy_h2d(1.758947)
F:  8506458----T:  8509063 	 St: c0754000 Sz: 4096 	 Sm: 0 	 T: memcpy_h2d(1.758947)
F:  8509063----T:  8511668 	 St: c077e000 Sz: 4096 	 Sm: 0 	 T: memcpy_h2d(1.758947)
F:  8511668----T:  8514273 	 St: c07a3000 Sz: 4096 	 Sm: 0 	 T: memcpy_h2d(1.758947)
F:  8514273----T:  8516878 	 St: c0758000 Sz: 4096 	 Sm: 0 	 T: memcpy_h2d(1.758947)
F:  8516878----T:  8519483 	 St: c0752000 Sz: 4096 	 Sm: 0 	 T: memcpy_h2d(1.758947)
F:  8519483----T:  8522088 	 St: c0751000 Sz: 4096 	 Sm: 0 	 T: memcpy_h2d(1.758947)
F:  8522088----T:  8524693 	 St: c076c000 Sz: 4096 	 Sm: 0 	 T: memcpy_h2d(1.758947)
F:  8524693----T:  8527298 	 St: c07ac000 Sz: 4096 	 Sm: 0 	 T: memcpy_h2d(1.758947)
F:  8527298----T:  8529903 	 St: c0783000 Sz: 4096 	 Sm: 0 	 T: memcpy_h2d(1.758947)
F:  8529903----T:  8532508 	 St: c0773000 Sz: 4096 	 Sm: 0 	 T: memcpy_h2d(1.758947)
F:  8532508----T:  8535113 	 St: c0797000 Sz: 4096 	 Sm: 0 	 T: memcpy_h2d(1.758947)
F:  8535113----T:  8537718 	 St: c07cb000 Sz: 4096 	 Sm: 0 	 T: memcpy_h2d(1.758947)
F:  8537718----T:  8540323 	 St: c076f000 Sz: 4096 	 Sm: 0 	 T: memcpy_h2d(1.758947)
F:  8540323----T:  8542928 	 St: c0796000 Sz: 4096 	 Sm: 0 	 T: memcpy_h2d(1.758947)
F:  8542928----T:  8545533 	 St: c07ec000 Sz: 4096 	 Sm: 0 	 T: memcpy_h2d(1.758947)
F:  8545533----T:  8548138 	 St: c07ee000 Sz: 4096 	 Sm: 0 	 T: memcpy_h2d(1.758947)
F:  8548138----T:  8550743 	 St: c07ba000 Sz: 4096 	 Sm: 0 	 T: memcpy_h2d(1.758947)
F:  8550743----T:  8553348 	 St: c0785000 Sz: 4096 	 Sm: 0 	 T: memcpy_h2d(1.758947)
F:  8553348----T:  8555953 	 St: c07d1000 Sz: 4096 	 Sm: 0 	 T: memcpy_h2d(1.758947)
F:  8555953----T:  8558558 	 St: c07a4000 Sz: 4096 	 Sm: 0 	 T: memcpy_h2d(1.758947)
F:  8558558----T:  8561163 	 St: c07cc000 Sz: 4096 	 Sm: 0 	 T: memcpy_h2d(1.758947)
F:  8561163----T:  8563768 	 St: c07ca000 Sz: 4096 	 Sm: 0 	 T: memcpy_h2d(1.758947)
F:  8563768----T:  8566373 	 St: c07c7000 Sz: 4096 	 Sm: 0 	 T: memcpy_h2d(1.758947)
F:  8566373----T:  8568978 	 St: c07d5000 Sz: 4096 	 Sm: 0 	 T: memcpy_h2d(1.758947)
F:  8568978----T:  8571583 	 St: c07d2000 Sz: 4096 	 Sm: 0 	 T: memcpy_h2d(1.758947)
F:  8571583----T:  8574188 	 St: c07e0000 Sz: 4096 	 Sm: 0 	 T: memcpy_h2d(1.758947)
F:  8574188----T:  8576793 	 St: c0786000 Sz: 4096 	 Sm: 0 	 T: memcpy_h2d(1.758947)
F:  8576793----T:  8579398 	 St: c07a8000 Sz: 4096 	 Sm: 0 	 T: memcpy_h2d(1.758947)
F:  8579398----T:  8582003 	 St: c07c0000 Sz: 4096 	 Sm: 0 	 T: memcpy_h2d(1.758947)
F:  8582003----T:  8584608 	 St: c079e000 Sz: 4096 	 Sm: 0 	 T: memcpy_h2d(1.758947)
F:  8584608----T:  8587213 	 St: c07b7000 Sz: 4096 	 Sm: 0 	 T: memcpy_h2d(1.758947)
F:  8587213----T:  8589818 	 St: c07d7000 Sz: 4096 	 Sm: 0 	 T: memcpy_h2d(1.758947)
F:  8589818----T:  8592423 	 St: c07d3000 Sz: 4096 	 Sm: 0 	 T: memcpy_h2d(1.758947)
F:  8592423----T:  8595028 	 St: c0787000 Sz: 4096 	 Sm: 0 	 T: memcpy_h2d(1.758947)
F:  8595028----T:  8597633 	 St: c07ab000 Sz: 4096 	 Sm: 0 	 T: memcpy_h2d(1.758947)
F:  8597633----T:  8600238 	 St: c07cf000 Sz: 4096 	 Sm: 0 	 T: memcpy_h2d(1.758947)
F:  8600238----T:  8602843 	 St: c07f0000 Sz: 4096 	 Sm: 0 	 T: memcpy_h2d(1.758947)
F:  8602843----T:  8605448 	 St: c07df000 Sz: 4096 	 Sm: 0 	 T: memcpy_h2d(1.758947)
F:  8605448----T:  8608053 	 St: c07ed000 Sz: 4096 	 Sm: 0 	 T: memcpy_h2d(1.758947)
F:  8608053----T:  8610658 	 St: c07ae000 Sz: 4096 	 Sm: 0 	 T: memcpy_h2d(1.758947)
F:  8610658----T:  8613263 	 St: c07a0000 Sz: 4096 	 Sm: 0 	 T: memcpy_h2d(1.758947)
F:  8613263----T:  8615868 	 St: c07e6000 Sz: 4096 	 Sm: 0 	 T: memcpy_h2d(1.758947)
F:  8615868----T:  8618473 	 St: c07e7000 Sz: 4096 	 Sm: 0 	 T: memcpy_h2d(1.758947)
F:  8618473----T:  8621078 	 St: c07e8000 Sz: 4096 	 Sm: 0 	 T: memcpy_h2d(1.758947)
F:  8621078----T:  8623683 	 St: c06cd000 Sz: 4096 	 Sm: 0 	 T: memcpy_h2d(1.758947)
F:  8623683----T:  8626288 	 St: c06cc000 Sz: 4096 	 Sm: 0 	 T: memcpy_h2d(1.758947)
F:  8626288----T:  8628893 	 St: c06a8000 Sz: 4096 	 Sm: 0 	 T: memcpy_h2d(1.758947)
F:  8628893----T:  8631498 	 St: c06a9000 Sz: 4096 	 Sm: 0 	 T: memcpy_h2d(1.758947)
F:  8631498----T:  8634103 	 St: c073c000 Sz: 4096 	 Sm: 0 	 T: memcpy_h2d(1.758947)
F:  8634103----T:  8636708 	 St: c073a000 Sz: 4096 	 Sm: 0 	 T: memcpy_h2d(1.758947)
F:  8636708----T:  8639313 	 St: c073b000 Sz: 4096 	 Sm: 0 	 T: memcpy_h2d(1.758947)
F:  8639313----T:  8641918 	 St: c0738000 Sz: 4096 	 Sm: 0 	 T: memcpy_h2d(1.758947)
F:  8641918----T:  8644523 	 St: c0739000 Sz: 4096 	 Sm: 0 	 T: memcpy_h2d(1.758947)
F:  8644523----T:  8647128 	 St: c07a1000 Sz: 4096 	 Sm: 0 	 T: memcpy_h2d(1.758947)
F:  8647128----T:  8649733 	 St: c07a2000 Sz: 4096 	 Sm: 0 	 T: memcpy_h2d(1.758947)
F:  8649733----T:  8652338 	 St: c0761000 Sz: 4096 	 Sm: 0 	 T: memcpy_h2d(1.758947)
F:  8652338----T:  8654943 	 St: c075f000 Sz: 4096 	 Sm: 0 	 T: memcpy_h2d(1.758947)
F:  8654943----T:  8657548 	 St: c07e9000 Sz: 4096 	 Sm: 0 	 T: memcpy_h2d(1.758947)
F:  8657548----T:  8660153 	 St: c07ea000 Sz: 4096 	 Sm: 0 	 T: memcpy_h2d(1.758947)
F:  8660153----T:  8662758 	 St: c0780000 Sz: 4096 	 Sm: 0 	 T: memcpy_h2d(1.758947)
F:  8662758----T:  8665363 	 St: c0781000 Sz: 4096 	 Sm: 0 	 T: memcpy_h2d(1.758947)
F:  8665363----T:  8667968 	 St: c07af000 Sz: 4096 	 Sm: 0 	 T: memcpy_h2d(1.758947)
F:  8667968----T:  8670573 	 St: c07b1000 Sz: 4096 	 Sm: 0 	 T: memcpy_h2d(1.758947)
F:  8670573----T:  8673178 	 St: c07b0000 Sz: 4096 	 Sm: 0 	 T: memcpy_h2d(1.758947)
F:  8673178----T:  8675783 	 St: c07b2000 Sz: 4096 	 Sm: 0 	 T: memcpy_h2d(1.758947)
F:  8675783----T:  8678388 	 St: c07c6000 Sz: 4096 	 Sm: 0 	 T: memcpy_h2d(1.758947)
F:  8678388----T:  8680993 	 St: c07c5000 Sz: 4096 	 Sm: 0 	 T: memcpy_h2d(1.758947)
F:  8680993----T:  8683598 	 St: c07b3000 Sz: 4096 	 Sm: 0 	 T: memcpy_h2d(1.758947)
F:  8683598----T:  8686203 	 St: c07b4000 Sz: 4096 	 Sm: 0 	 T: memcpy_h2d(1.758947)
F:  8686602----T:  8689207 	 St: c01ca000 Sz: 4096 	 Sm: 0 	 T: memcpy_h2d(1.758947)
F:  8689207----T:  8691812 	 St: c01c3000 Sz: 4096 	 Sm: 0 	 T: memcpy_h2d(1.758947)
F:  8691812----T:  8694417 	 St: c01c1000 Sz: 4096 	 Sm: 0 	 T: memcpy_h2d(1.758947)
F:  8694417----T:  8697022 	 St: c01e0000 Sz: 4096 	 Sm: 0 	 T: memcpy_h2d(1.758947)
F:  8697022----T:  8699627 	 St: c01d5000 Sz: 4096 	 Sm: 0 	 T: memcpy_h2d(1.758947)
F:  8699627----T:  8702232 	 St: c01e3000 Sz: 4096 	 Sm: 0 	 T: memcpy_h2d(1.758947)
F:  8702232----T:  8704837 	 St: c01de000 Sz: 4096 	 Sm: 0 	 T: memcpy_h2d(1.758947)
F:  8704837----T:  8707442 	 St: c01f9000 Sz: 4096 	 Sm: 0 	 T: memcpy_h2d(1.758947)
F:  8707442----T:  8710047 	 St: c01fe000 Sz: 4096 	 Sm: 0 	 T: memcpy_h2d(1.758947)
F:  8710047----T:  8712652 	 St: c083a000 Sz: 4096 	 Sm: 0 	 T: memcpy_h2d(1.758947)
F:  8712652----T:  8715257 	 St: c081b000 Sz: 4096 	 Sm: 0 	 T: memcpy_h2d(1.758947)
F:  8715257----T:  8717862 	 St: c0834000 Sz: 4096 	 Sm: 0 	 T: memcpy_h2d(1.758947)
F:  8717862----T:  8720467 	 St: c083e000 Sz: 4096 	 Sm: 0 	 T: memcpy_h2d(1.758947)
F:  8720467----T:  8723072 	 St: c0829000 Sz: 4096 	 Sm: 0 	 T: memcpy_h2d(1.758947)
F:  8723072----T:  8725677 	 St: c083f000 Sz: 4096 	 Sm: 0 	 T: memcpy_h2d(1.758947)
F:  8725677----T:  8728282 	 St: c0832000 Sz: 4096 	 Sm: 0 	 T: memcpy_h2d(1.758947)
F:  8728282----T:  8730887 	 St: c083b000 Sz: 4096 	 Sm: 0 	 T: memcpy_h2d(1.758947)
F:  8730887----T:  8733492 	 St: c0806000 Sz: 4096 	 Sm: 0 	 T: memcpy_h2d(1.758947)
F:  8733492----T:  8736097 	 St: c0824000 Sz: 4096 	 Sm: 0 	 T: memcpy_h2d(1.758947)
F:  8736097----T:  8738702 	 St: c0808000 Sz: 4096 	 Sm: 0 	 T: memcpy_h2d(1.758947)
F:  8738702----T:  8741307 	 St: c081d000 Sz: 4096 	 Sm: 0 	 T: memcpy_h2d(1.758947)
F:  8741307----T:  8743912 	 St: c0801000 Sz: 4096 	 Sm: 0 	 T: memcpy_h2d(1.758947)
F:  8743912----T:  8746517 	 St: c0833000 Sz: 4096 	 Sm: 0 	 T: memcpy_h2d(1.758947)
F:  8746517----T:  8749122 	 St: c07ff000 Sz: 4096 	 Sm: 0 	 T: memcpy_h2d(1.758947)
F:  8749122----T:  8751727 	 St: c07f5000 Sz: 4096 	 Sm: 0 	 T: memcpy_h2d(1.758947)
F:  8751727----T:  8754332 	 St: c0809000 Sz: 4096 	 Sm: 0 	 T: memcpy_h2d(1.758947)
F:  8754332----T:  8756937 	 St: c07f7000 Sz: 4096 	 Sm: 0 	 T: memcpy_h2d(1.758947)
F:  8756937----T:  8759542 	 St: c07fa000 Sz: 4096 	 Sm: 0 	 T: memcpy_h2d(1.758947)
F:  8759542----T:  8762147 	 St: c0890000 Sz: 4096 	 Sm: 0 	 T: memcpy_h2d(1.758947)
F:  8762147----T:  8764752 	 St: c0897000 Sz: 4096 	 Sm: 0 	 T: memcpy_h2d(1.758947)
F:  8764752----T:  8767357 	 St: c081e000 Sz: 4096 	 Sm: 0 	 T: memcpy_h2d(1.758947)
F:  8767357----T:  8769962 	 St: c0816000 Sz: 4096 	 Sm: 0 	 T: memcpy_h2d(1.758947)
F:  8769962----T:  8772567 	 St: c0879000 Sz: 4096 	 Sm: 0 	 T: memcpy_h2d(1.758947)
F:  8772567----T:  8775172 	 St: c087b000 Sz: 4096 	 Sm: 0 	 T: memcpy_h2d(1.758947)
F:  8775172----T:  8777777 	 St: c07fe000 Sz: 4096 	 Sm: 0 	 T: memcpy_h2d(1.758947)
F:  8777777----T:  8780382 	 St: c0815000 Sz: 4096 	 Sm: 0 	 T: memcpy_h2d(1.758947)
F:  8780382----T:  8782987 	 St: c0891000 Sz: 4096 	 Sm: 0 	 T: memcpy_h2d(1.758947)
F:  8782987----T:  8785592 	 St: c0813000 Sz: 4096 	 Sm: 0 	 T: memcpy_h2d(1.758947)
F:  8785592----T:  8788197 	 St: c081a000 Sz: 4096 	 Sm: 0 	 T: memcpy_h2d(1.758947)
F:  8788197----T:  8790802 	 St: c0871000 Sz: 4096 	 Sm: 0 	 T: memcpy_h2d(1.758947)
F:  8790802----T:  8793407 	 St: c0885000 Sz: 4096 	 Sm: 0 	 T: memcpy_h2d(1.758947)
F:  8793407----T:  8796012 	 St: c0893000 Sz: 4096 	 Sm: 0 	 T: memcpy_h2d(1.758947)
F:  8796012----T:  8798617 	 St: c0880000 Sz: 4096 	 Sm: 0 	 T: memcpy_h2d(1.758947)
F:  8798617----T:  8801222 	 St: c0825000 Sz: 4096 	 Sm: 0 	 T: memcpy_h2d(1.758947)
F:  8801222----T:  8803827 	 St: c0854000 Sz: 4096 	 Sm: 0 	 T: memcpy_h2d(1.758947)
F:  8803827----T:  8806432 	 St: c0895000 Sz: 4096 	 Sm: 0 	 T: memcpy_h2d(1.758947)
F:  8806432----T:  8809037 	 St: c089b000 Sz: 4096 	 Sm: 0 	 T: memcpy_h2d(1.758947)
F:  8809037----T:  8811642 	 St: c0851000 Sz: 4096 	 Sm: 0 	 T: memcpy_h2d(1.758947)
F:  8811642----T:  8814247 	 St: c0864000 Sz: 4096 	 Sm: 0 	 T: memcpy_h2d(1.758947)
F:  8814247----T:  8816852 	 St: c080f000 Sz: 4096 	 Sm: 0 	 T: memcpy_h2d(1.758947)
F:  8816852----T:  8819457 	 St: c0811000 Sz: 4096 	 Sm: 0 	 T: memcpy_h2d(1.758947)
F:  8819457----T:  8822062 	 St: c0814000 Sz: 4096 	 Sm: 0 	 T: memcpy_h2d(1.758947)
F:  8822062----T:  8824667 	 St: c0856000 Sz: 4096 	 Sm: 0 	 T: memcpy_h2d(1.758947)
F:  8824667----T:  8827272 	 St: c087a000 Sz: 4096 	 Sm: 0 	 T: memcpy_h2d(1.758947)
F:  8827272----T:  8829877 	 St: c0875000 Sz: 4096 	 Sm: 0 	 T: memcpy_h2d(1.758947)
F:  8829877----T:  8832482 	 St: c086c000 Sz: 4096 	 Sm: 0 	 T: memcpy_h2d(1.758947)
F:  8832482----T:  8835087 	 St: c087d000 Sz: 4096 	 Sm: 0 	 T: memcpy_h2d(1.758947)
F:  8835087----T:  8837692 	 St: c088d000 Sz: 4096 	 Sm: 0 	 T: memcpy_h2d(1.758947)
F:  8837692----T:  8840297 	 St: c0842000 Sz: 4096 	 Sm: 0 	 T: memcpy_h2d(1.758947)
F:  8840297----T:  8842902 	 St: c084b000 Sz: 4096 	 Sm: 0 	 T: memcpy_h2d(1.758947)
F:  8842902----T:  8845507 	 St: c088b000 Sz: 4096 	 Sm: 0 	 T: memcpy_h2d(1.758947)
F:  8845507----T:  8848112 	 St: c0848000 Sz: 4096 	 Sm: 0 	 T: memcpy_h2d(1.758947)
F:  8848112----T:  8850717 	 St: c0860000 Sz: 4096 	 Sm: 0 	 T: memcpy_h2d(1.758947)
F:  8850717----T:  8853322 	 St: c085e000 Sz: 4096 	 Sm: 0 	 T: memcpy_h2d(1.758947)
F:  8853322----T:  8855927 	 St: c0874000 Sz: 4096 	 Sm: 0 	 T: memcpy_h2d(1.758947)
F:  8855927----T:  8858532 	 St: c088c000 Sz: 4096 	 Sm: 0 	 T: memcpy_h2d(1.758947)
F:  8858532----T:  8861137 	 St: c0869000 Sz: 4096 	 Sm: 0 	 T: memcpy_h2d(1.758947)
F:  8861137----T:  8863742 	 St: c08b4000 Sz: 4096 	 Sm: 0 	 T: memcpy_h2d(1.758947)
F:  8863742----T:  8866347 	 St: c084f000 Sz: 4096 	 Sm: 0 	 T: memcpy_h2d(1.758947)
F:  8866347----T:  8868952 	 St: c084a000 Sz: 4096 	 Sm: 0 	 T: memcpy_h2d(1.758947)
F:  8868952----T:  8871557 	 St: c0850000 Sz: 4096 	 Sm: 0 	 T: memcpy_h2d(1.758947)
F:  8871557----T:  8874162 	 St: c08aa000 Sz: 4096 	 Sm: 0 	 T: memcpy_h2d(1.758947)
F:  8874162----T:  8876767 	 St: c08b1000 Sz: 4096 	 Sm: 0 	 T: memcpy_h2d(1.758947)
F:  8876767----T:  8879372 	 St: c08a3000 Sz: 4096 	 Sm: 0 	 T: memcpy_h2d(1.758947)
F:  8879372----T:  8881977 	 St: c089e000 Sz: 4096 	 Sm: 0 	 T: memcpy_h2d(1.758947)
F:  8881977----T:  8884582 	 St: c08a4000 Sz: 4096 	 Sm: 0 	 T: memcpy_h2d(1.758947)
F:  8884582----T:  8887187 	 St: c08b0000 Sz: 4096 	 Sm: 0 	 T: memcpy_h2d(1.758947)
F:  8887187----T:  8889792 	 St: c08b2000 Sz: 4096 	 Sm: 0 	 T: memcpy_h2d(1.758947)
F:  8889792----T:  8892397 	 St: c081f000 Sz: 4096 	 Sm: 0 	 T: memcpy_h2d(1.758947)
F:  8892397----T:  8895002 	 St: c0820000 Sz: 4096 	 Sm: 0 	 T: memcpy_h2d(1.758947)
F:  8895002----T:  8897607 	 St: c080a000 Sz: 4096 	 Sm: 0 	 T: memcpy_h2d(1.758947)
F:  8897607----T:  8900212 	 St: c080b000 Sz: 4096 	 Sm: 0 	 T: memcpy_h2d(1.758947)
F:  8900212----T:  8902817 	 St: c0803000 Sz: 4096 	 Sm: 0 	 T: memcpy_h2d(1.758947)
F:  8902817----T:  8905422 	 St: c0805000 Sz: 4096 	 Sm: 0 	 T: memcpy_h2d(1.758947)
F:  8905422----T:  8908027 	 St: c0804000 Sz: 4096 	 Sm: 0 	 T: memcpy_h2d(1.758947)
F:  8908027----T:  8910632 	 St: c0861000 Sz: 4096 	 Sm: 0 	 T: memcpy_h2d(1.758947)
F:  8910632----T:  8913237 	 St: c0862000 Sz: 4096 	 Sm: 0 	 T: memcpy_h2d(1.758947)
F:  8913237----T:  8915842 	 St: c0841000 Sz: 4096 	 Sm: 0 	 T: memcpy_h2d(1.758947)
F:  8915842----T:  8918447 	 St: c0840000 Sz: 4096 	 Sm: 0 	 T: memcpy_h2d(1.758947)
F:  8918447----T:  8921052 	 St: c086a000 Sz: 4096 	 Sm: 0 	 T: memcpy_h2d(1.758947)
F:  8921052----T:  8923657 	 St: c086b000 Sz: 4096 	 Sm: 0 	 T: memcpy_h2d(1.758947)
F:  8923657----T:  8926262 	 St: c085c000 Sz: 4096 	 Sm: 0 	 T: memcpy_h2d(1.758947)
F:  8926262----T:  8928867 	 St: c085b000 Sz: 4096 	 Sm: 0 	 T: memcpy_h2d(1.758947)
F:  8928867----T:  8931472 	 St: c08ab000 Sz: 4096 	 Sm: 0 	 T: memcpy_h2d(1.758947)
F:  8931472----T:  8934077 	 St: c08ac000 Sz: 4096 	 Sm: 0 	 T: memcpy_h2d(1.758947)
F:  8934077----T:  8936682 	 St: c08ad000 Sz: 4096 	 Sm: 0 	 T: memcpy_h2d(1.758947)
F:  8936682----T:  8939287 	 St: c08bb000 Sz: 4096 	 Sm: 0 	 T: memcpy_h2d(1.758947)
F:  9165067----T:  9179667 	 	 	 Kl: 12 	 Sm: 0 	 T: kernel_launch(9.858204)
F:  9179667----T:  9182202 	 St: 80000000 Sz: 1 	 Sm: 0 	 T: memcpy_d2h(1.711681)
F:  9182203----T:  9184738 	 St: 80000000 Sz: 1 	 Sm: 0 	 T: memcpy_h2d(1.711681)
F:  9406889----T:  9535360 	 	 	 Kl: 13 	 Sm: 0 	 T: kernel_launch(86.746117)
F:  9409054----T:  9411659 	 St: c03f3000 Sz: 4096 	 Sm: 0 	 T: memcpy_h2d(1.758947)
F:  9411659----T:  9414264 	 St: c040e000 Sz: 4096 	 Sm: 0 	 T: memcpy_h2d(1.758947)
F:  9414264----T:  9416869 	 St: c03fd000 Sz: 4096 	 Sm: 0 	 T: memcpy_h2d(1.758947)
F:  9416869----T:  9419474 	 St: c03c1000 Sz: 4096 	 Sm: 0 	 T: memcpy_h2d(1.758947)
F:  9441605----T:  9444210 	 St: c04f8000 Sz: 4096 	 Sm: 0 	 T: memcpy_h2d(1.758947)
F:  9451987----T:  9454592 	 St: c0571000 Sz: 4096 	 Sm: 0 	 T: memcpy_h2d(1.758947)
F:  9454592----T:  9457197 	 St: c0583000 Sz: 4096 	 Sm: 0 	 T: memcpy_h2d(1.758947)
F:  9458931----T:  9461536 	 St: c05b3000 Sz: 4096 	 Sm: 0 	 T: memcpy_h2d(1.758947)
F:  9462604----T:  9465209 	 St: c05d7000 Sz: 4096 	 Sm: 0 	 T: memcpy_h2d(1.758947)
F:  9467019----T:  9469624 	 St: c0624000 Sz: 4096 	 Sm: 0 	 T: memcpy_h2d(1.758947)
F:  9469624----T:  9472229 	 St: c0623000 Sz: 4096 	 Sm: 0 	 T: memcpy_h2d(1.758947)
F:  9472229----T:  9474834 	 St: c0633000 Sz: 4096 	 Sm: 0 	 T: memcpy_h2d(1.758947)
F:  9476102----T:  9478707 	 St: c0680000 Sz: 4096 	 Sm: 0 	 T: memcpy_h2d(1.758947)
F:  9478707----T:  9481312 	 St: c06a4000 Sz: 4096 	 Sm: 0 	 T: memcpy_h2d(1.758947)
F:  9481312----T:  9483917 	 St: c0663000 Sz: 4096 	 Sm: 0 	 T: memcpy_h2d(1.758947)
F:  9485163----T:  9487768 	 St: c06d0000 Sz: 4096 	 Sm: 0 	 T: memcpy_h2d(1.758947)
F:  9490483----T:  9493088 	 St: c0760000 Sz: 4096 	 Sm: 0 	 T: memcpy_h2d(1.758947)
F:  9493088----T:  9495693 	 St: c077f000 Sz: 4096 	 Sm: 0 	 T: memcpy_h2d(1.758947)
F:  9497867----T:  9500472 	 St: c078b000 Sz: 4096 	 Sm: 0 	 T: memcpy_h2d(1.758947)
F:  9502064----T:  9504669 	 St: c07dd000 Sz: 4096 	 Sm: 0 	 T: memcpy_h2d(1.758947)
F:  9506266----T:  9508871 	 St: c07f6000 Sz: 4096 	 Sm: 0 	 T: memcpy_h2d(1.758947)
F:  9510753----T:  9513358 	 St: c0839000 Sz: 4096 	 Sm: 0 	 T: memcpy_h2d(1.758947)
F:  9513358----T:  9515963 	 St: c0844000 Sz: 4096 	 Sm: 0 	 T: memcpy_h2d(1.758947)
F:  9515963----T:  9518568 	 St: c0855000 Sz: 4096 	 Sm: 0 	 T: memcpy_h2d(1.758947)
F:  9520049----T:  9522654 	 St: c0883000 Sz: 4096 	 Sm: 0 	 T: memcpy_h2d(1.758947)
F:  9522654----T:  9525259 	 St: c08b9000 Sz: 4096 	 Sm: 0 	 T: memcpy_h2d(1.758947)
F:  9525259----T:  9527864 	 St: c08ba000 Sz: 4096 	 Sm: 0 	 T: memcpy_h2d(1.758947)
F:  9757510----T:  9772628 	 	 	 Kl: 14 	 Sm: 0 	 T: kernel_launch(10.207968)
F:  9772628----T:  9775163 	 St: 80000000 Sz: 1 	 Sm: 0 	 T: memcpy_d2h(1.711681)
F:  9775164----T:  9777699 	 St: 80000000 Sz: 1 	 Sm: 0 	 T: memcpy_h2d(1.711681)
F:  9999850----T: 10304723 	 	 	 Kl: 15 	 Sm: 0 	 T: kernel_launch(205.856171)
F: 10526873----T: 10542008 	 	 	 Kl: 16 	 Sm: 0 	 T: kernel_launch(10.219446)
F: 10542008----T: 10544543 	 St: 80000000 Sz: 1 	 Sm: 0 	 T: memcpy_d2h(1.711681)
F: 10544544----T: 10547079 	 St: 80000000 Sz: 1 	 Sm: 0 	 T: memcpy_h2d(1.711681)
F: 10769230----T: 10956576 	 	 	 Kl: 17 	 Sm: 0 	 T: kernel_launch(126.499664)
F: 11178726----T: 11189095 	 	 	 Kl: 18 	 Sm: 0 	 T: kernel_launch(7.001350)
F: 11189095----T: 11191630 	 St: 80000000 Sz: 1 	 Sm: 0 	 T: memcpy_d2h(1.711681)
F: 11191631----T: 11194166 	 St: 80000000 Sz: 1 	 Sm: 0 	 T: memcpy_h2d(1.711681)
F: 11416317----T: 11436265 	 	 	 Kl: 19 	 Sm: 0 	 T: kernel_launch(13.469277)
F: 11658415----T: 11661651 	 	 	 Kl: 20 	 Sm: 0 	 T: kernel_launch(2.185010)
F: 11661651----T: 11664186 	 St: 80000000 Sz: 1 	 Sm: 0 	 T: memcpy_d2h(1.711681)
F: 11664187----T: 11666722 	 St: 80000000 Sz: 1 	 Sm: 0 	 T: memcpy_h2d(1.711681)
F: 11888873----T: 11893958 	 	 	 Kl: 21 	 Sm: 0 	 T: kernel_launch(3.433491)
F: 12116108----T: 12119287 	 	 	 Kl: 22 	 Sm: 0 	 T: kernel_launch(2.146523)
F: 12119287----T: 12121822 	 St: 80000000 Sz: 1 	 Sm: 0 	 T: memcpy_d2h(1.711681)
F: 12121823----T: 12124428 	 St: 0 Sz: 4096 	 Sm: 0 	 T: device_sync(1.758947)
F: 12121823----T: 12130063 	 St: 0 Sz: 61440 	 Sm: 0 	 T: device_sync(5.563808)
F: 12132668----T: 12135273 	 St: 0 Sz: 4096 	 Sm: 0 	 T: device_sync(1.758947)
F: 12132668----T: 12140908 	 St: 0 Sz: 61440 	 Sm: 0 	 T: device_sync(5.563808)
F: 12143513----T: 12146118 	 St: 0 Sz: 4096 	 Sm: 0 	 T: device_sync(1.758947)
F: 12143513----T: 12159208 	 St: 0 Sz: 126976 	 Sm: 0 	 T: device_sync(10.597569)
F: 12161813----T: 12164418 	 St: 0 Sz: 4096 	 Sm: 0 	 T: device_sync(1.758947)
F: 12161813----T: 12192536 	 St: 0 Sz: 258048 	 Sm: 0 	 T: device_sync(20.744766)
F: 12195141----T: 12197746 	 St: 0 Sz: 4096 	 Sm: 0 	 T: device_sync(1.758947)
F: 12195141----T: 12255977 	 St: 0 Sz: 520192 	 Sm: 0 	 T: device_sync(41.077652)
F: 12258582----T: 12261187 	 St: 0 Sz: 4096 	 Sm: 0 	 T: device_sync(1.758947)
F: 12258582----T: 12349543 	 St: 0 Sz: 782336 	 Sm: 0 	 T: device_sync(61.418636)
Tot_prefetch_time: 0(cycle), 0.000000(us)
Tot_kernel_exec_time: 7178731(cycle), 4847.218750(us)
Tot_kernel_exec_time_and_fault_time: 173191426(cycle), 116942.218750(us)
Tot_memcpy_h2d_time: 6516940(cycle), 4400.364746(us)
Tot_memcpy_d2h_time: 27885(cycle), 18.828495(us)
Tot_memcpy_time: 6544825(cycle), 4419.192871(us)
Tot_devicesync_time: 230325(cycle), 155.519913(us)
Tot_writeback_time: 0(cycle), 0.000000(us)
Tot_dma_time: 0(cycle), 0.000000(us)
Tot_memcpy_d2h_sync_wb_time: 258210(cycle), 174.348419(us)
GPGPU-Sim: *** exit detected ***
