

        *** GPGPU-Sim Simulator Version 3.2.2  [build gpgpu-sim_git-commit-1c1adf09f9d1bccf70ff97255c2b46b40ff0e800_modified_0] ***


GPGPU-Sim PTX: simulation mode 0 (can change with PTX_SIM_MODE_FUNC environment variable:
               1=functional simulation only, 0=detailed performance simulator)
GPGPU-Sim: Configuration options:

-network_mode                           1 # Interconnection network mode
-inter_config_file   config_fermi_islip.icnt # Interconnection network config file
-gpgpu_ptx_use_cuobjdump                    1 # Use cuobjdump to extract ptx and sass from binaries
-gpgpu_experimental_lib_support                    0 # Try to extract code from cuda libraries [Broken because of unknown cudaGetExportTable]
-gpgpu_ptx_convert_to_ptxplus                    0 # Convert SASS (native ISA) to ptxplus and run ptxplus
-gpgpu_ptx_force_max_capability                   20 # Force maximum compute capability
-gpgpu_ptx_inst_debug_to_file                    0 # Dump executed instructions' debug information to file
-gpgpu_ptx_inst_debug_file       inst_debug.txt # Executed instructions' debug output file
-gpgpu_ptx_inst_debug_thread_uid                    1 # Thread UID for executed instructions' debug output
-gpgpu_simd_model                       1 # 1 = post-dominator
-gpgpu_shader_core_pipeline              2048:32 # shader core pipeline config, i.e., {<nthread>:<warpsize>}
-gpgpu_tex_cache:l1  16:128:24,L:R:m:N:L,F:128:4,128:2 # per-shader L1 texture cache  (READ-ONLY) config  {<nsets>:<bsize>:<assoc>,<rep>:<wr>:<alloc>:<wr_alloc>,<mshr>:<N>:<merge>,<mq>:<rf>}
-gpgpu_const_cache:l1 128:64:2,L:R:f:N:L,A:2:64,4 # per-shader L1 constant memory cache  (READ-ONLY) config  {<nsets>:<bsize>:<assoc>,<rep>:<wr>:<alloc>:<wr_alloc>,<mshr>:<N>:<merge>,<mq>} 
-gpgpu_cache:il1     8:128:4,L:R:f:N:L,A:2:48,4 # shader L1 instruction cache config  {<nsets>:<bsize>:<assoc>,<rep>:<wr>:<alloc>:<wr_alloc>,<mshr>:<N>:<merge>,<mq>} 
-gpgpu_cache:dl1     64:128:6,L:L:m:N:H,A:128:8,8 # per-shader L1 data cache config  {<nsets>:<bsize>:<assoc>,<rep>:<wr>:<alloc>:<wr_alloc>,<mshr>:<N>:<merge>,<mq> | none}
-gpgpu_cache:dl1PrefL1                 none # per-shader L1 data cache config  {<nsets>:<bsize>:<assoc>,<rep>:<wr>:<alloc>:<wr_alloc>,<mshr>:<N>:<merge>,<mq> | none}
-gpgpu_cache:dl1PrefShared                 none # per-shader L1 data cache config  {<nsets>:<bsize>:<assoc>,<rep>:<wr>:<alloc>:<wr_alloc>,<mshr>:<N>:<merge>,<mq> | none}
-gmem_skip_L1D                          1 # global memory access skip L1D cache (implements -Xptxas -dlcm=cg, default=no skip)
-gpgpu_perfect_mem                      0 # enable perfect memory mode (no cache miss)
-n_regfile_gating_group                    4 # group of lanes that should be read/written together)
-gpgpu_clock_gated_reg_file                    0 # enable clock gated reg file for power calculations
-gpgpu_clock_gated_lanes                    0 # enable clock gated lanes for power calculations
-gpgpu_shader_registers                65536 # Number of registers per shader core. Limits number of concurrent CTAs. (default 8192)
-gpgpu_shader_cta                      32 # Maximum number of concurrent CTAs in shader (default 8)
-gpgpu_num_cta_barriers                   16 # Maximum number of named barriers per CTA (default 16)
-gpgpu_n_clusters                      28 # number of processing clusters
-gpgpu_n_cores_per_cluster                    1 # number of simd cores per cluster
-gpgpu_n_cluster_ejection_buffer_size                    8 # number of packets in ejection buffer
-gpgpu_n_ldst_response_buffer_size                    2 # number of response packets in ld/st unit ejection buffer
-gpgpu_shmem_size                   16384 # Size of shared memory per shader core (default 16kB)
-gpgpu_shmem_size                   98304 # Size of shared memory per shader core (default 16kB)
-gpgpu_shmem_size_PrefL1                16384 # Size of shared memory per shader core (default 16kB)
-gpgpu_shmem_size_PrefShared                16384 # Size of shared memory per shader core (default 16kB)
-gpgpu_shmem_num_banks                   32 # Number of banks in the shared memory in each shader core (default 16)
-gpgpu_shmem_limited_broadcast                    0 # Limit shared memory to do one broadcast per cycle (default on)
-gpgpu_shmem_warp_parts                    1 # Number of portions a warp is divided into for shared memory bank conflict check 
-gpgpu_warpdistro_shader                   -1 # Specify which shader core to collect the warp size distribution from
-gpgpu_warp_issue_shader                    0 # Specify which shader core to collect the warp issue distribution from
-gpgpu_local_mem_map                    1 # Mapping from local memory space address to simulated GPU physical address space (default = enabled)
-gpgpu_num_reg_banks                   32 # Number of register banks (default = 8)
-gpgpu_reg_bank_use_warp_id                    0 # Use warp ID in mapping registers to banks (default = off)
-gpgpu_operand_collector_num_units_sp                   20 # number of collector units (default = 4)
-gpgpu_operand_collector_num_units_sfu                    4 # number of collector units (default = 4)
-gpgpu_operand_collector_num_units_mem                    8 # number of collector units (default = 2)
-gpgpu_operand_collector_num_units_gen                    0 # number of collector units (default = 0)
-gpgpu_operand_collector_num_in_ports_sp                    4 # number of collector unit in ports (default = 1)
-gpgpu_operand_collector_num_in_ports_sfu                    1 # number of collector unit in ports (default = 1)
-gpgpu_operand_collector_num_in_ports_mem                    1 # number of collector unit in ports (default = 1)
-gpgpu_operand_collector_num_in_ports_gen                    0 # number of collector unit in ports (default = 0)
-gpgpu_operand_collector_num_out_ports_sp                    4 # number of collector unit in ports (default = 1)
-gpgpu_operand_collector_num_out_ports_sfu                    1 # number of collector unit in ports (default = 1)
-gpgpu_operand_collector_num_out_ports_mem                    1 # number of collector unit in ports (default = 1)
-gpgpu_operand_collector_num_out_ports_gen                    0 # number of collector unit in ports (default = 0)
-gpgpu_coalesce_arch                   13 # Coalescing arch (default = 13, anything else is off for now)
-gpgpu_num_sched_per_core                    2 # Number of warp schedulers per core
-gpgpu_max_insn_issue_per_warp                    2 # Max number of instructions that can be issued per warp in one cycle by scheduler
-gpgpu_simt_core_sim_order                    1 # Select the simulation order of cores in a cluster (0=Fix, 1=Round-Robin)
-gpgpu_pipeline_widths        4,1,1,4,1,1,6 # Pipeline widths ID_OC_SP,ID_OC_SFU,ID_OC_MEM,OC_EX_SP,OC_EX_SFU,OC_EX_MEM,EX_WB
-gpgpu_num_sp_units                     4 # Number of SP units (default=1)
-gpgpu_num_sfu_units                    1 # Number of SF units (default=1)
-gpgpu_num_mem_units                    1 # Number if ldst units (default=1) WARNING: not hooked up to anything
-gpgpu_scheduler                      gto # Scheduler configuration: < lrr | gto | two_level_active > If two_level_active:<num_active_warps>:<inner_prioritization>:<outer_prioritization>For complete list of prioritization values see shader.h enum scheduler_prioritization_typeDefault: gto
-gpgpu_concurrent_kernel_sm                    0 # Support concurrent kernels on a SM (default = disabled)
-tlb_size                            4096 # Number of tlb entries per SM.
-gpgpu_dram_scheduler                    1 # 0 = fifo, 1 = FR-FCFS (defaul)
-gpgpu_dram_partition_queues              8:8:8:8 # i2$:$2d:d2$:$2i
-l2_ideal                               0 # Use a ideal L2 cache that always hit
-gpgpu_cache:dl2     64:128:16,L:B:m:W:L,A:1024:1024,4:0,32 # unified banked L2 data cache config  {<nsets>:<bsize>:<assoc>,<rep>:<wr>:<alloc>:<wr_alloc>,<mshr>:<N>:<merge>,<mq>}
-gpgpu_cache:dl2_texture_only                    0 # L2 cache used for texture only
-gpgpu_n_mem                           11 # number of memory modules (e.g. memory controllers) in gpu
-gpgpu_n_sub_partition_per_mchannel                    2 # number of memory subpartition in each memory module
-gpgpu_n_mem_per_ctrlr                    1 # number of memory chips per memory controller
-gpgpu_memlatency_stat                   14 # track and display latency statistics 0x2 enables MC, 0x4 enables queue logs
-gpgpu_frfcfs_dram_sched_queue_size                   64 # 0 = unlimited (default); # entries per chip
-gpgpu_dram_return_queue_size                  116 # 0 = unlimited (default); # entries per chip
-gpgpu_dram_buswidth                    4 # default = 4 bytes (8 bytes per cycle at DDR)
-gpgpu_dram_burst_length                    8 # Burst length of each DRAM request (default = 4 data bus cycle)
-dram_data_command_freq_ratio                    4 # Frequency ratio between DRAM data bus and command bus (default = 2 times, i.e. DDR)
-gpgpu_dram_timing_opt nbk=16:CCD=2:RRD=6:RCD=12:RAS=28:RP=12:RC=40: CL=12:WL=4:CDLR=5:WR=12:nbkgrp=1:CCDL=0:RTPL=0 # DRAM timing parameters = {nbk:tCCD:tRRD:tRCD:tRAS:tRP:tRC:CL:WL:tCDLR:tWR:nbkgrp:tCCDL:tRTPL}
-rop_latency                          120 # ROP queue latency (default 85)
-dram_latency                         100 # DRAM latency (default 30)
-gpgpu_mem_addr_mapping dramid@8;00000000.00000000.00000000.00000000.0000RRRR.RRRRRRRR.RBBBCCCC.BCCSSSSS # mapping memory address to dram model {dramid@<start bit>;<memory address map>}
-gpgpu_mem_addr_test                    0 # run sweep test to check address mapping for aliased address
-gpgpu_mem_address_mask                    1 # 0 = old addressing mask, 1 = new addressing mask, 2 = new add. mask + flipped bank sel and chip sel bits
-gpuwattch_xml_file  gpuwattch_geforcegtx1080ti.xml # GPUWattch XML file
-power_simulation_enabled                    1 # Turn on power simulator (1=On, 0=Off)
-power_per_cycle_dump                    0 # Dump detailed power output each cycle
-power_trace_enabled                    0 # produce a file for the power trace (1=On, 0=Off)
-power_trace_zlevel                     6 # Compression level of the power trace output log (0=no comp, 9=highest)
-steady_power_levels_enabled                    0 # produce a file for the steady power levels (1=On, 0=Off)
-steady_state_definition                  8:4 # allowed deviation:number of samples
-gpgpu_max_cycle                        0 # terminates gpu simulation early (0 = no limit)
-gpgpu_max_insn                         0 # terminates gpu simulation early (0 = no limit)
-gpgpu_max_cta                          0 # terminates gpu simulation early (0 = no limit)
-gpgpu_runtime_stat                   500 # display runtime statistics such as dram utilization {<freq>:<flag>}
-liveness_message_freq                    1 # Minimum number of seconds between simulation liveness messages (0 = always print)
-gpgpu_flush_l1_cache                    0 # Flush L1 cache at the end of each kernel call
-gpgpu_flush_l2_cache                    0 # Flush L2 cache at the end of each kernel call
-gpgpu_deadlock_detect                    0 # Stop the simulation at deadlock (1=on (default), 0=off)
-gpgpu_ptx_instruction_classification                    0 # if enabled will classify ptx instruction types per kernel (Max 255 kernels now)
-gpgpu_ptx_sim_mode                     0 # Select between Performance (default) or Functional simulation (1)
-gpgpu_clock_domains 1481.0:2962.0:1481.0:2750.0 # Clock Domain Frequencies in MhZ {<Core Clock>:<ICNT Clock>:<L2 Clock>:<DRAM Clock>}
-gpgpu_max_concurrent_kernel                    8 # maximum kernels that can run concurrently on GPU
-gpgpu_cflog_interval                    0 # Interval between each snapshot in control flow logger
-visualizer_enabled                     0 # Turn on visualizer output (1=On, 0=Off)
-visualizer_outputfile                 NULL # Specifies the output log file for visualizer
-visualizer_zlevel                      6 # Compression level of the visualizer output log (0=no comp, 9=highest)
-trace_enabled                          0 # Turn on traces
-trace_components                    none # comma seperated list of traces to enable. Complete list found in trace_streams.tup. Default none
-trace_sampling_core                    0 # The core which is printed using CORE_DPRINTF. Default 0
-trace_sampling_memory_partition                   -1 # The memory partition which is printed using MEMPART_DPRINTF. Default -1 (i.e. all)
-gddr_size                            1GB # Size of GDDR in MB/GB.(GLOBAL_HEAP_START, GLOBAL_HEAP_START + gddr_size) would be used for unmanged memory, (GLOBAL_HEAP_START + gddr_size, GLOBAL_HEAP_START + gddr_size*2) would be used for managed memory. 
-page_table_walk_latency                  100 # Average page table walk latency (in core cycle).
-eviction_policy                        0 # Select page eviction policy
-invalidate_clean                       0 # Should directly invalidate clean pages
-reserve_accessed_page_percent                    0 # Percentage of accessed pages reserved from eviction in hope that they will be accessed in next iteration.
-percentage_of_free_page_buffer                    0 # Percentage of free page buffer to trigger the page eviction.
-page_size                            4KB # GDDR page size, only 4KB/2MB avaliable.
-pcie_bandwidth                  16.0GB/s # PCI-e bandwidth per direction, in GB/s.
-enable_dma                             0 # Enable direct access to CPU memory
-multiply_dma_penalty                    2 # Oversubscription Multiplicative Penalty Factor for Adaptive DMA
-migrate_threshold                      8 # Access counter threshold for migrating the page from cpu to gpu
-sim_prof_enable                        1 # Enable gpgpu-sim profiler
-hardware_prefetch                      0 # Select gpgpu-sim hardware prefetcher
-hwprefetch_oversub                     1 # Select gpgpu-sim hardware prefetcher under over-subscription
-page_fault_latency                 66645 # Average fault latency (in core cycle).
-enable_accurate_simulation                    0 # Enable page fault functional simulation.
-enable_ptx_file_line_stats                    1 # Turn on PTX source line statistic profiling. (1 = On)
-ptx_line_stats_filename gpgpu_inst_stats.txt # Output file for PTX source line statistics.
-gpgpu_kernel_launch_latency               222150 # Kernel launch latency in cycles. Default: 0
-gpgpu_cdp_enabled                      0 # Turn on CDP
-save_embedded_ptx                      0 # saves ptx files embedded in binary as <n>.ptx
-keep                                   0 # keep intermediate files created by GPGPU-Sim when interfacing with external programs
-gpgpu_ptx_save_converted_ptxplus                    0 # Saved converted ptxplus to a file
-ptx_opcode_latency_int         4,13,4,5,145 # Opcode latencies for integers <ADD,MAX,MUL,MAD,DIV>Default 1,1,19,25,145
-ptx_opcode_latency_fp          4,13,4,5,39 # Opcode latencies for single precision floating points <ADD,MAX,MUL,MAD,DIV>Default 1,1,1,1,30
-ptx_opcode_latency_dp         8,19,8,8,330 # Opcode latencies for double precision floating points <ADD,MAX,MUL,MAD,DIV>Default 8,8,8,8,335
-ptx_opcode_initiation_int            1,2,2,2,8 # Opcode initiation intervals for integers <ADD,MAX,MUL,MAD,DIV>Default 1,1,4,4,32
-ptx_opcode_initiation_fp            1,2,1,1,4 # Opcode initiation intervals for single precision floating points <ADD,MAX,MUL,MAD,DIV>Default 1,1,1,1,5
-ptx_opcode_initiation_dp          1,2,1,1,130 # Opcode initiation intervals for double precision floating points <ADD,MAX,MUL,MAD,DIV>Default 8,8,8,8,130
-cdp_latency         7200,8000,100,12000,1600 # CDP API latency <cudaStreamCreateWithFlags, cudaGetParameterBufferV2_init_perWarp, cudaGetParameterBufferV2_perKernel, cudaLaunchDeviceV2_init_perWarp, cudaLaunchDevicV2_perKernel>Default 7200,8000,100,12000,1600
DRAM Timing Options:
nbk                                    16 # number of banks
CCD                                     2 # column to column delay
RRD                                     6 # minimal delay between activation of rows in different banks
RCD                                    12 # row to column delay
RAS                                    28 # time needed to activate row
RP                                     12 # time needed to precharge (deactivate) row
RC                                     40 # row cycle time
CDLR                                    5 # switching from write to read (changes tWTR)
WR                                     12 # last data-in to row precharge
CL                                     12 # CAS latency
WL                                      4 # Write latency
nbkgrp                                  1 # number of bank groups
CCDL                                    0 # column to column delay between accesses to different bank groups
RTPL                                    0 # read to precharge delay between accesses to different bank groups
Total number of memory sub partition = 22
addr_dec_mask[CHIP]  = 0000000000000000 	high:64 low:0
addr_dec_mask[BK]    = 0000000000007080 	high:15 low:7
addr_dec_mask[ROW]   = 000000000fff8000 	high:28 low:15
addr_dec_mask[COL]   = 0000000000000f7f 	high:12 low:0
addr_dec_mask[BURST] = 000000000000001f 	high:5 low:0
sub_partition_id_mask = 0000000000000080
GPGPU-Sim uArch: clock freqs: 1481000000.000000:2962000000.000000:1481000000.000000:2750000000.000000
GPGPU-Sim uArch: clock periods: 0.00000000067521944632:0.00000000033760972316:0.00000000067521944632:0.00000000036363636364
*** Initializing Memory Statistics ***
GPGPU-Sim uArch: interconnect node map (shaderID+MemID to icntID)
GPGPU-Sim uArch: Memory nodes ID start from index: 28
GPGPU-Sim uArch:    0   1   2   3   4   5   6
GPGPU-Sim uArch:    7   8   9  10  11  12  13
GPGPU-Sim uArch:   14  15  16  17  18  19  20
GPGPU-Sim uArch:   21  22  23  24  25  26  27
GPGPU-Sim uArch:   28  29  30  31  32  33  34
GPGPU-Sim uArch:   35  36  37  38  39  40  41
GPGPU-Sim uArch:   42  43  44  45  46  47  48
GPGPU-Sim uArch:   49
GPGPU-Sim uArch: interconnect node reverse map (icntID to shaderID+MemID)
GPGPU-Sim uArch: Memory nodes start from ID: 28
GPGPU-Sim uArch:    0   1   2   3   4   5   6
GPGPU-Sim uArch:    7   8   9  10  11  12  13
GPGPU-Sim uArch:   14  15  16  17  18  19  20
GPGPU-Sim uArch:   21  22  23  24  25  26  27
GPGPU-Sim uArch:   28  29  30  31  32  33  34
GPGPU-Sim uArch:   35  36  37  38  39  40  41
GPGPU-Sim uArch:   42  43  44  45  46  47  48
GPGPU-Sim uArch:   49
e828e378526951f16b012862363f76aa  /root/gpgpu-sim_UVMSmart/benchmarks/Managed/FDTD-2D/main
GPGPU-Sim uArch: performance model initialization complete.
GPGPU-Sim PTX: __cudaRegisterFatBinary, fat_cubin_handle = 1, filename=default
self exe links to: /root/gpgpu-sim_UVMSmart/benchmarks/Managed/FDTD-2D/main
Running md5sum using "md5sum /root/gpgpu-sim_UVMSmart/benchmarks/Managed/FDTD-2D/main "
Parsing file _cuobjdump_complete_output_8iNwgZ
######### cuobjdump parser ########
## Adding new section ELF
Adding arch: sm_20
Adding identifier: default
## Adding new section ELF
Adding arch: sm_20
Adding identifier: default
## Adding new section PTX
Adding ptx filename: _cuobjdump_1.ptx
Adding arch: sm_20
Adding identifier: default
Done parsing!!!
GPGPU-Sim PTX: __cudaRegisterFunction _Z17fdtd_step3_kernelPfS_S_i : hostFun 0x0x401766, fat_cubin_handle = 1
GPGPU-Sim PTX: instruction assembly for function '_Z17fdtd_step1_kernelPfS_S_S_i'...   done.
GPGPU-Sim PTX: finding reconvergence points for '_Z17fdtd_step1_kernelPfS_S_S_i'...
GPGPU-Sim PTX: Finding dominators for '_Z17fdtd_step1_kernelPfS_S_S_i'...
GPGPU-Sim PTX: Finding immediate dominators for '_Z17fdtd_step1_kernelPfS_S_S_i'...
GPGPU-Sim PTX: Finding postdominators for '_Z17fdtd_step1_kernelPfS_S_S_i'...
GPGPU-Sim PTX: Finding immediate postdominators for '_Z17fdtd_step1_kernelPfS_S_S_i'...
GPGPU-Sim PTX: pre-decoding instructions for '_Z17fdtd_step1_kernelPfS_S_S_i'...
GPGPU-Sim PTX: reconvergence points for _Z17fdtd_step1_kernelPfS_S_S_i...
GPGPU-Sim PTX:  1 (potential) branch divergence @  PC=0x080 (_1.ptx:44) @!%p3 bra BB0_4;
GPGPU-Sim PTX:    immediate post dominator      @  PC=0x150 (_1.ptx:77) ret;
GPGPU-Sim PTX:  2 (potential) branch divergence @  PC=0x088 (_1.ptx:45) bra.uni BB0_1;
GPGPU-Sim PTX:    immediate post dominator      @  PC=0x090 (_1.ptx:48) setp.eq.s32%p4, %r2, 0;
GPGPU-Sim PTX:  3 (potential) branch divergence @  PC=0x098 (_1.ptx:49) @%p4 bra BB0_3;
GPGPU-Sim PTX:    immediate post dominator      @  PC=0x150 (_1.ptx:77) ret;
GPGPU-Sim PTX:  4 (potential) branch divergence @  PC=0x110 (_1.ptx:65) bra.uni BB0_4;
GPGPU-Sim PTX:    immediate post dominator      @  PC=0x150 (_1.ptx:77) ret;
GPGPU-Sim PTX: ... end of reconvergence points for _Z17fdtd_step1_kernelPfS_S_S_i
GPGPU-Sim PTX: ... done pre-decoding instructions for '_Z17fdtd_step1_kernelPfS_S_S_i'.
GPGPU-Sim PTX: instruction assembly for function '_Z17fdtd_step2_kernelPfS_S_i'...   done.
GPGPU-Sim PTX: finding reconvergence points for '_Z17fdtd_step2_kernelPfS_S_i'...
GPGPU-Sim PTX: Finding dominators for '_Z17fdtd_step2_kernelPfS_S_i'...
GPGPU-Sim PTX: Finding immediate dominators for '_Z17fdtd_step2_kernelPfS_S_i'...
GPGPU-Sim PTX: Finding postdominators for '_Z17fdtd_step2_kernelPfS_S_i'...
GPGPU-Sim PTX: Finding immediate postdominators for '_Z17fdtd_step2_kernelPfS_S_i'...
GPGPU-Sim PTX: pre-decoding instructions for '_Z17fdtd_step2_kernelPfS_S_i'...
GPGPU-Sim PTX: reconvergence points for _Z17fdtd_step2_kernelPfS_S_i...
GPGPU-Sim PTX:  1 (potential) branch divergence @  PC=0x1d0 (_1.ptx:109) @!%p5 bra BB1_2;
GPGPU-Sim PTX:    immediate post dominator      @  PC=0x268 (_1.ptx:132) ret;
GPGPU-Sim PTX:  2 (potential) branch divergence @  PC=0x1d8 (_1.ptx:110) bra.uni BB1_1;
GPGPU-Sim PTX:    immediate post dominator      @  PC=0x1e0 (_1.ptx:113) cvta.to.global.u64 %rd3, %rd2;
GPGPU-Sim PTX: ... end of reconvergence points for _Z17fdtd_step2_kernelPfS_S_i
GPGPU-Sim PTX: ... done pre-decoding instructions for '_Z17fdtd_step2_kernelPfS_S_i'.
GPGPU-Sim PTX: instruction assembly for function '_Z17fdtd_step3_kernelPfS_S_i'...   done.
GPGPU-Sim PTX: finding reconvergence points for '_Z17fdtd_step3_kernelPfS_S_i'...
GPGPU-Sim PTX: Finding dominators for '_Z17fdtd_step3_kernelPfS_S_i'...
GPGPU-Sim PTX: Finding immediate dominators for '_Z17fdtd_step3_kernelPfS_S_i'...
GPGPU-Sim PTX: Finding postdominators for '_Z17fdtd_step3_kernelPfS_S_i'...
GPGPU-Sim PTX: Finding immediate postdominators for '_Z17fdtd_step3_kernelPfS_S_i'...
GPGPU-Sim PTX: pre-decoding instructions for '_Z17fdtd_step3_kernelPfS_S_i'...
GPGPU-Sim PTX: reconvergence points for _Z17fdtd_step3_kernelPfS_S_i...
GPGPU-Sim PTX:  1 (potential) branch divergence @  PC=0x2e0 (_1.ptx:163) @!%p3 bra BB2_2;
GPGPU-Sim PTX:    immediate post dominator      @  PC=0x390 (_1.ptx:189) ret;
GPGPU-Sim PTX:  2 (potential) branch divergence @  PC=0x2e8 (_1.ptx:164) bra.uni BB2_1;
GPGPU-Sim PTX:    immediate post dominator      @  PC=0x2f0 (_1.ptx:167) cvta.to.global.u64 %rd4, %rd2;
GPGPU-Sim PTX: ... end of reconvergence points for _Z17fdtd_step3_kernelPfS_S_i
GPGPU-Sim PTX: ... done pre-decoding instructions for '_Z17fdtd_step3_kernelPfS_S_i'.
GPGPU-Sim PTX: finished parsing EMBEDDED .ptx file _1.ptx
Adding _cuobjdump_1.ptx with cubin handle 1
GPGPU-Sim PTX: extracting embedded .ptx to temporary file "_ptx_nKHeg9"
Running: cat _ptx_nKHeg9 | sed 's/.version 1.5/.version 1.4/' | sed 's/, texmode_independent//' | sed 's/\(\.extern \.const\[1\] .b8 \w\+\)\[\]/\1\[1\]/' | sed 's/const\[.\]/const\[0\]/g' > _ptx2_yAlXfj
GPGPU-Sim PTX: generating ptxinfo using "$CUDA_INSTALL_PATH/bin/ptxas --gpu-name=sm_20 -v _ptx2_yAlXfj --output-file  /dev/null 2> _ptx_nKHeg9info"
GPGPU-Sim PTX: Kernel '_Z17fdtd_step2_kernelPfS_S_i' : regs=10, lmem=0, smem=0, cmem=60
GPGPU-Sim PTX: Kernel '_Z17fdtd_step1_kernelPfS_S_S_i' : regs=10, lmem=0, smem=0, cmem=68
GPGPU-Sim PTX: Kernel '_Z17fdtd_step3_kernelPfS_S_i' : regs=12, lmem=0, smem=0, cmem=64
GPGPU-Sim PTX: removing ptxinfo using "rm -f _ptx_nKHeg9 _ptx2_yAlXfj _ptx_nKHeg9info"
GPGPU-Sim PTX: loading globals with explicit initializers... 
GPGPU-Sim PTX: finished loading globals (0 bytes total).
GPGPU-Sim PTX: loading constants with explicit initializers...  done.
GPGPU-Sim PTX: __cudaRegisterFunction _Z17fdtd_step2_kernelPfS_S_i : hostFun 0x0x40167f, fat_cubin_handle = 1
GPGPU-Sim PTX: __cudaRegisterFunction _Z17fdtd_step1_kernelPfS_S_S_i : hostFun 0x0x40158c, fat_cubin_handle = 1

GPGPU-Sim PTX: cudaLaunch for 0x0x40158c (mode=performance simulation) on stream 0
GPGPU-Sim PTX: pushing kernel '_Z17fdtd_step1_kernelPfS_S_S_i' to stream 0, gridDim= (38,150,1) blockDim = (32,8,1) 
GPGPU-Sim uArch: Shader 1 bind to kernel 1 '_Z17fdtd_step1_kernelPfS_S_S_i'
GPGPU-Sim uArch: CTA/core = 8, limited by: threads
GPGPU-Sim uArch: Shader 2 bind to kernel 1 '_Z17fdtd_step1_kernelPfS_S_S_i'
GPGPU-Sim uArch: Shader 3 bind to kernel 1 '_Z17fdtd_step1_kernelPfS_S_S_i'
GPGPU-Sim uArch: Shader 4 bind to kernel 1 '_Z17fdtd_step1_kernelPfS_S_S_i'
GPGPU-Sim uArch: Shader 5 bind to kernel 1 '_Z17fdtd_step1_kernelPfS_S_S_i'
GPGPU-Sim uArch: Shader 6 bind to kernel 1 '_Z17fdtd_step1_kernelPfS_S_S_i'
GPGPU-Sim uArch: Shader 7 bind to kernel 1 '_Z17fdtd_step1_kernelPfS_S_S_i'
GPGPU-Sim uArch: Shader 8 bind to kernel 1 '_Z17fdtd_step1_kernelPfS_S_S_i'
GPGPU-Sim uArch: Shader 9 bind to kernel 1 '_Z17fdtd_step1_kernelPfS_S_S_i'
GPGPU-Sim uArch: Shader 10 bind to kernel 1 '_Z17fdtd_step1_kernelPfS_S_S_i'
GPGPU-Sim uArch: Shader 11 bind to kernel 1 '_Z17fdtd_step1_kernelPfS_S_S_i'
GPGPU-Sim uArch: Shader 12 bind to kernel 1 '_Z17fdtd_step1_kernelPfS_S_S_i'
GPGPU-Sim uArch: Shader 13 bind to kernel 1 '_Z17fdtd_step1_kernelPfS_S_S_i'
GPGPU-Sim uArch: Shader 14 bind to kernel 1 '_Z17fdtd_step1_kernelPfS_S_S_i'
GPGPU-Sim uArch: Shader 15 bind to kernel 1 '_Z17fdtd_step1_kernelPfS_S_S_i'
GPGPU-Sim uArch: Shader 16 bind to kernel 1 '_Z17fdtd_step1_kernelPfS_S_S_i'
GPGPU-Sim uArch: Shader 17 bind to kernel 1 '_Z17fdtd_step1_kernelPfS_S_S_i'
GPGPU-Sim uArch: Shader 18 bind to kernel 1 '_Z17fdtd_step1_kernelPfS_S_S_i'
GPGPU-Sim uArch: Shader 19 bind to kernel 1 '_Z17fdtd_step1_kernelPfS_S_S_i'
GPGPU-Sim uArch: Shader 20 bind to kernel 1 '_Z17fdtd_step1_kernelPfS_S_S_i'
GPGPU-Sim uArch: Shader 21 bind to kernel 1 '_Z17fdtd_step1_kernelPfS_S_S_i'
GPGPU-Sim uArch: Shader 22 bind to kernel 1 '_Z17fdtd_step1_kernelPfS_S_S_i'
GPGPU-Sim uArch: Shader 23 bind to kernel 1 '_Z17fdtd_step1_kernelPfS_S_S_i'
GPGPU-Sim uArch: Shader 24 bind to kernel 1 '_Z17fdtd_step1_kernelPfS_S_S_i'
GPGPU-Sim uArch: Shader 25 bind to kernel 1 '_Z17fdtd_step1_kernelPfS_S_S_i'
GPGPU-Sim uArch: Shader 26 bind to kernel 1 '_Z17fdtd_step1_kernelPfS_S_S_i'
GPGPU-Sim uArch: Shader 27 bind to kernel 1 '_Z17fdtd_step1_kernelPfS_S_S_i'
GPGPU-Sim uArch: Shader 0 bind to kernel 1 '_Z17fdtd_step1_kernelPfS_S_S_i'
GPGPU-Sim uArch: Shader 4 bind to kernel 1 '_Z17fdtd_step1_kernelPfS_S_S_i'
GPGPU-Sim uArch: Shader 5 bind to kernel 1 '_Z17fdtd_step1_kernelPfS_S_S_i'
GPGPU-Sim uArch: Shader 6 bind to kernel 1 '_Z17fdtd_step1_kernelPfS_S_S_i'
GPGPU-Sim uArch: Shader 7 bind to kernel 1 '_Z17fdtd_step1_kernelPfS_S_S_i'
GPGPU-Sim uArch: Shader 8 bind to kernel 1 '_Z17fdtd_step1_kernelPfS_S_S_i'
GPGPU-Sim uArch: Shader 9 bind to kernel 1 '_Z17fdtd_step1_kernelPfS_S_S_i'
GPGPU-Sim uArch: Shader 10 bind to kernel 1 '_Z17fdtd_step1_kernelPfS_S_S_i'
GPGPU-Sim uArch: Shader 11 bind to kernel 1 '_Z17fdtd_step1_kernelPfS_S_S_i'
GPGPU-Sim uArch: Shader 12 bind to kernel 1 '_Z17fdtd_step1_kernelPfS_S_S_i'
GPGPU-Sim uArch: Shader 13 bind to kernel 1 '_Z17fdtd_step1_kernelPfS_S_S_i'
GPGPU-Sim uArch: Shader 14 bind to kernel 1 '_Z17fdtd_step1_kernelPfS_S_S_i'
GPGPU-Sim uArch: Shader 15 bind to kernel 1 '_Z17fdtd_step1_kernelPfS_S_S_i'
GPGPU-Sim uArch: Shader 16 bind to kernel 1 '_Z17fdtd_step1_kernelPfS_S_S_i'
GPGPU-Sim uArch: Shader 23 bind to kernel 1 '_Z17fdtd_step1_kernelPfS_S_S_i'
GPGPU-Sim uArch: Shader 24 bind to kernel 1 '_Z17fdtd_step1_kernelPfS_S_S_i'
GPGPU-Sim uArch: Shader 25 bind to kernel 1 '_Z17fdtd_step1_kernelPfS_S_S_i'
GPGPU-Sim uArch: Shader 26 bind to kernel 1 '_Z17fdtd_step1_kernelPfS_S_S_i'
GPGPU-Sim uArch: Shader 27 bind to kernel 1 '_Z17fdtd_step1_kernelPfS_S_S_i'
GPGPU-Sim uArch: Shader 0 bind to kernel 1 '_Z17fdtd_step1_kernelPfS_S_S_i'
GPGPU-Sim uArch: Shader 23 bind to kernel 1 '_Z17fdtd_step1_kernelPfS_S_S_i'
GPGPU-Sim uArch: Shader 24 bind to kernel 1 '_Z17fdtd_step1_kernelPfS_S_S_i'
GPGPU-Sim uArch: Shader 4 bind to kernel 1 '_Z17fdtd_step1_kernelPfS_S_S_i'
GPGPU-Sim uArch: Shader 5 bind to kernel 1 '_Z17fdtd_step1_kernelPfS_S_S_i'
GPGPU-Sim uArch: Shader 6 bind to kernel 1 '_Z17fdtd_step1_kernelPfS_S_S_i'
GPGPU-Sim uArch: Shader 7 bind to kernel 1 '_Z17fdtd_step1_kernelPfS_S_S_i'
GPGPU-Sim uArch: Shader 8 bind to kernel 1 '_Z17fdtd_step1_kernelPfS_S_S_i'
GPGPU-Sim uArch: Shader 9 bind to kernel 1 '_Z17fdtd_step1_kernelPfS_S_S_i'
GPGPU-Sim uArch: Shader 10 bind to kernel 1 '_Z17fdtd_step1_kernelPfS_S_S_i'
GPGPU-Sim uArch: Shader 11 bind to kernel 1 '_Z17fdtd_step1_kernelPfS_S_S_i'
GPGPU-Sim uArch: Shader 12 bind to kernel 1 '_Z17fdtd_step1_kernelPfS_S_S_i'
GPGPU-Sim uArch: Shader 13 bind to kernel 1 '_Z17fdtd_step1_kernelPfS_S_S_i'
GPGPU-Sim uArch: Shader 14 bind to kernel 1 '_Z17fdtd_step1_kernelPfS_S_S_i'
GPGPU-Sim uArch: Shader 15 bind to kernel 1 '_Z17fdtd_step1_kernelPfS_S_S_i'
GPGPU-Sim uArch: Shader 16 bind to kernel 1 '_Z17fdtd_step1_kernelPfS_S_S_i'
GPGPU-Sim uArch: Shader 4 bind to kernel 1 '_Z17fdtd_step1_kernelPfS_S_S_i'
GPGPU-Sim uArch: Shader 5 bind to kernel 1 '_Z17fdtd_step1_kernelPfS_S_S_i'
GPGPU-Sim uArch: Shader 6 bind to kernel 1 '_Z17fdtd_step1_kernelPfS_S_S_i'
GPGPU-Sim uArch: Shader 7 bind to kernel 1 '_Z17fdtd_step1_kernelPfS_S_S_i'
GPGPU-Sim uArch: Shader 8 bind to kernel 1 '_Z17fdtd_step1_kernelPfS_S_S_i'
GPGPU-Sim uArch: Shader 9 bind to kernel 1 '_Z17fdtd_step1_kernelPfS_S_S_i'
GPGPU-Sim uArch: Shader 10 bind to kernel 1 '_Z17fdtd_step1_kernelPfS_S_S_i'
GPGPU-Sim uArch: Shader 11 bind to kernel 1 '_Z17fdtd_step1_kernelPfS_S_S_i'
GPGPU-Sim uArch: Shader 12 bind to kernel 1 '_Z17fdtd_step1_kernelPfS_S_S_i'
GPGPU-Sim uArch: Shader 23 bind to kernel 1 '_Z17fdtd_step1_kernelPfS_S_S_i'
GPGPU-Sim uArch: Shader 24 bind to kernel 1 '_Z17fdtd_step1_kernelPfS_S_S_i'
GPGPU-Sim uArch: Shader 23 bind to kernel 1 '_Z17fdtd_step1_kernelPfS_S_S_i'
GPGPU-Sim uArch: Shader 4 bind to kernel 1 '_Z17fdtd_step1_kernelPfS_S_S_i'
GPGPU-Sim uArch: Shader 5 bind to kernel 1 '_Z17fdtd_step1_kernelPfS_S_S_i'
GPGPU-Sim uArch: Shader 6 bind to kernel 1 '_Z17fdtd_step1_kernelPfS_S_S_i'
GPGPU-Sim uArch: Shader 7 bind to kernel 1 '_Z17fdtd_step1_kernelPfS_S_S_i'
GPGPU-Sim uArch: Shader 8 bind to kernel 1 '_Z17fdtd_step1_kernelPfS_S_S_i'
GPGPU-Sim uArch: Shader 9 bind to kernel 1 '_Z17fdtd_step1_kernelPfS_S_S_i'
GPGPU-Sim uArch: Shader 10 bind to kernel 1 '_Z17fdtd_step1_kernelPfS_S_S_i'
GPGPU-Sim uArch: Shader 11 bind to kernel 1 '_Z17fdtd_step1_kernelPfS_S_S_i'
GPGPU-Sim uArch: Shader 12 bind to kernel 1 '_Z17fdtd_step1_kernelPfS_S_S_i'
GPGPU-Sim uArch: Shader 4 bind to kernel 1 '_Z17fdtd_step1_kernelPfS_S_S_i'
GPGPU-Sim uArch: Shader 5 bind to kernel 1 '_Z17fdtd_step1_kernelPfS_S_S_i'
GPGPU-Sim uArch: Shader 6 bind to kernel 1 '_Z17fdtd_step1_kernelPfS_S_S_i'
GPGPU-Sim uArch: Shader 7 bind to kernel 1 '_Z17fdtd_step1_kernelPfS_S_S_i'
GPGPU-Sim uArch: Shader 8 bind to kernel 1 '_Z17fdtd_step1_kernelPfS_S_S_i'
GPGPU-Sim uArch: Shader 9 bind to kernel 1 '_Z17fdtd_step1_kernelPfS_S_S_i'
GPGPU-Sim uArch: Shader 10 bind to kernel 1 '_Z17fdtd_step1_kernelPfS_S_S_i'
GPGPU-Sim uArch: Shader 11 bind to kernel 1 '_Z17fdtd_step1_kernelPfS_S_S_i'
GPGPU-Sim uArch: Shader 12 bind to kernel 1 '_Z17fdtd_step1_kernelPfS_S_S_i'
GPGPU-Sim uArch: Shader 13 bind to kernel 1 '_Z17fdtd_step1_kernelPfS_S_S_i'
GPGPU-Sim uArch: Shader 14 bind to kernel 1 '_Z17fdtd_step1_kernelPfS_S_S_i'
GPGPU-Sim uArch: Shader 15 bind to kernel 1 '_Z17fdtd_step1_kernelPfS_S_S_i'
GPGPU-Sim uArch: Shader 16 bind to kernel 1 '_Z17fdtd_step1_kernelPfS_S_S_i'
GPGPU-Sim uArch: Shader 23 bind to kernel 1 '_Z17fdtd_step1_kernelPfS_S_S_i'
GPGPU-Sim uArch: Shader 23 bind to kernel 1 '_Z17fdtd_step1_kernelPfS_S_S_i'
GPGPU-Sim uArch: Shader 24 bind to kernel 1 '_Z17fdtd_step1_kernelPfS_S_S_i'
GPGPU-Sim uArch: Shader 25 bind to kernel 1 '_Z17fdtd_step1_kernelPfS_S_S_i'
GPGPU-Sim uArch: Shader 26 bind to kernel 1 '_Z17fdtd_step1_kernelPfS_S_S_i'
GPGPU-Sim uArch: Shader 27 bind to kernel 1 '_Z17fdtd_step1_kernelPfS_S_S_i'
GPGPU-Sim uArch: Shader 4 bind to kernel 1 '_Z17fdtd_step1_kernelPfS_S_S_i'
GPGPU-Sim uArch: Shader 5 bind to kernel 1 '_Z17fdtd_step1_kernelPfS_S_S_i'
GPGPU-Sim uArch: Shader 6 bind to kernel 1 '_Z17fdtd_step1_kernelPfS_S_S_i'
GPGPU-Sim uArch: Shader 7 bind to kernel 1 '_Z17fdtd_step1_kernelPfS_S_S_i'
GPGPU-Sim uArch: Shader 8 bind to kernel 1 '_Z17fdtd_step1_kernelPfS_S_S_i'
GPGPU-Sim uArch: Shader 9 bind to kernel 1 '_Z17fdtd_step1_kernelPfS_S_S_i'
GPGPU-Sim uArch: Shader 10 bind to kernel 1 '_Z17fdtd_step1_kernelPfS_S_S_i'
GPGPU-Sim uArch: Shader 11 bind to kernel 1 '_Z17fdtd_step1_kernelPfS_S_S_i'
GPGPU-Sim uArch: Shader 12 bind to kernel 1 '_Z17fdtd_step1_kernelPfS_S_S_i'
GPGPU-Sim uArch: Shader 13 bind to kernel 1 '_Z17fdtd_step1_kernelPfS_S_S_i'
GPGPU-Sim uArch: Shader 14 bind to kernel 1 '_Z17fdtd_step1_kernelPfS_S_S_i'
GPGPU-Sim uArch: Shader 15 bind to kernel 1 '_Z17fdtd_step1_kernelPfS_S_S_i'
GPGPU-Sim uArch: Shader 16 bind to kernel 1 '_Z17fdtd_step1_kernelPfS_S_S_i'
GPGPU-Sim uArch: Shader 4 bind to kernel 1 '_Z17fdtd_step1_kernelPfS_S_S_i'
GPGPU-Sim uArch: Shader 5 bind to kernel 1 '_Z17fdtd_step1_kernelPfS_S_S_i'
GPGPU-Sim uArch: Shader 6 bind to kernel 1 '_Z17fdtd_step1_kernelPfS_S_S_i'
GPGPU-Sim uArch: Shader 7 bind to kernel 1 '_Z17fdtd_step1_kernelPfS_S_S_i'
GPGPU-Sim uArch: Shader 8 bind to kernel 1 '_Z17fdtd_step1_kernelPfS_S_S_i'
GPGPU-Sim uArch: Shader 9 bind to kernel 1 '_Z17fdtd_step1_kernelPfS_S_S_i'
GPGPU-Sim uArch: Shader 10 bind to kernel 1 '_Z17fdtd_step1_kernelPfS_S_S_i'
GPGPU-Sim uArch: Shader 11 bind to kernel 1 '_Z17fdtd_step1_kernelPfS_S_S_i'
GPGPU-Sim uArch: Shader 12 bind to kernel 1 '_Z17fdtd_step1_kernelPfS_S_S_i'
GPGPU-Sim uArch: Shader 13 bind to kernel 1 '_Z17fdtd_step1_kernelPfS_S_S_i'
GPGPU-Sim uArch: Shader 14 bind to kernel 1 '_Z17fdtd_step1_kernelPfS_S_S_i'
GPGPU-Sim uArch: Shader 15 bind to kernel 1 '_Z17fdtd_step1_kernelPfS_S_S_i'
GPGPU-Sim uArch: Shader 16 bind to kernel 1 '_Z17fdtd_step1_kernelPfS_S_S_i'
GPGPU-Sim uArch: Shader 17 bind to kernel 1 '_Z17fdtd_step1_kernelPfS_S_S_i'
GPGPU-Sim uArch: Shader 18 bind to kernel 1 '_Z17fdtd_step1_kernelPfS_S_S_i'
GPGPU-Sim uArch: Shader 19 bind to kernel 1 '_Z17fdtd_step1_kernelPfS_S_S_i'
GPGPU-Sim uArch: Shader 20 bind to kernel 1 '_Z17fdtd_step1_kernelPfS_S_S_i'
GPGPU-Sim uArch: Shader 21 bind to kernel 1 '_Z17fdtd_step1_kernelPfS_S_S_i'
GPGPU-Sim uArch: Shader 22 bind to kernel 1 '_Z17fdtd_step1_kernelPfS_S_S_i'
GPGPU-Sim uArch: Shader 23 bind to kernel 1 '_Z17fdtd_step1_kernelPfS_S_S_i'
GPGPU-Sim uArch: Shader 24 bind to kernel 1 '_Z17fdtd_step1_kernelPfS_S_S_i'
GPGPU-Sim uArch: Shader 25 bind to kernel 1 '_Z17fdtd_step1_kernelPfS_S_S_i'
GPGPU-Sim uArch: Shader 26 bind to kernel 1 '_Z17fdtd_step1_kernelPfS_S_S_i'
GPGPU-Sim uArch: Shader 27 bind to kernel 1 '_Z17fdtd_step1_kernelPfS_S_S_i'
GPGPU-Sim uArch: Shader 0 bind to kernel 1 '_Z17fdtd_step1_kernelPfS_S_S_i'
GPGPU-Sim uArch: Shader 1 bind to kernel 1 '_Z17fdtd_step1_kernelPfS_S_S_i'
GPGPU-Sim uArch: Shader 2 bind to kernel 1 '_Z17fdtd_step1_kernelPfS_S_S_i'
GPGPU-Sim uArch: Shader 4 bind to kernel 1 '_Z17fdtd_step1_kernelPfS_S_S_i'
GPGPU-Sim uArch: Shader 5 bind to kernel 1 '_Z17fdtd_step1_kernelPfS_S_S_i'
GPGPU-Sim uArch: Shader 6 bind to kernel 1 '_Z17fdtd_step1_kernelPfS_S_S_i'
GPGPU-Sim uArch: Shader 7 bind to kernel 1 '_Z17fdtd_step1_kernelPfS_S_S_i'
GPGPU-Sim uArch: Shader 8 bind to kernel 1 '_Z17fdtd_step1_kernelPfS_S_S_i'
GPGPU-Sim uArch: Shader 9 bind to kernel 1 '_Z17fdtd_step1_kernelPfS_S_S_i'
GPGPU-Sim uArch: Shader 10 bind to kernel 1 '_Z17fdtd_step1_kernelPfS_S_S_i'
GPGPU-Sim uArch: Shader 11 bind to kernel 1 '_Z17fdtd_step1_kernelPfS_S_S_i'
GPGPU-Sim uArch: Shader 12 bind to kernel 1 '_Z17fdtd_step1_kernelPfS_S_S_i'
GPGPU-Sim uArch: Shader 13 bind to kernel 1 '_Z17fdtd_step1_kernelPfS_S_S_i'
GPGPU-Sim uArch: Shader 14 bind to kernel 1 '_Z17fdtd_step1_kernelPfS_S_S_i'
GPGPU-Sim uArch: Shader 15 bind to kernel 1 '_Z17fdtd_step1_kernelPfS_S_S_i'
GPGPU-Sim uArch: Shader 16 bind to kernel 1 '_Z17fdtd_step1_kernelPfS_S_S_i'
GPGPU-Sim uArch: Shader 17 bind to kernel 1 '_Z17fdtd_step1_kernelPfS_S_S_i'
GPGPU-Sim uArch: Shader 18 bind to kernel 1 '_Z17fdtd_step1_kernelPfS_S_S_i'
GPGPU-Sim uArch: Shader 19 bind to kernel 1 '_Z17fdtd_step1_kernelPfS_S_S_i'
GPGPU-Sim uArch: Shader 20 bind to kernel 1 '_Z17fdtd_step1_kernelPfS_S_S_i'
GPGPU-Sim uArch: Shader 21 bind to kernel 1 '_Z17fdtd_step1_kernelPfS_S_S_i'
GPGPU-Sim uArch: Shader 22 bind to kernel 1 '_Z17fdtd_step1_kernelPfS_S_S_i'
GPGPU-Sim uArch: Shader 23 bind to kernel 1 '_Z17fdtd_step1_kernelPfS_S_S_i'
GPGPU-Sim uArch: Shader 24 bind to kernel 1 '_Z17fdtd_step1_kernelPfS_S_S_i'
GPGPU-Sim uArch: Shader 25 bind to kernel 1 '_Z17fdtd_step1_kernelPfS_S_S_i'
GPGPU-Sim uArch: Shader 26 bind to kernel 1 '_Z17fdtd_step1_kernelPfS_S_S_i'
GPGPU-Sim uArch: Shader 27 bind to kernel 1 '_Z17fdtd_step1_kernelPfS_S_S_i'
GPGPU-Sim uArch: Shader 0 bind to kernel 1 '_Z17fdtd_step1_kernelPfS_S_S_i'
GPGPU-Sim uArch: Shader 1 bind to kernel 1 '_Z17fdtd_step1_kernelPfS_S_S_i'
GPGPU-Sim uArch: Shader 4 bind to kernel 1 '_Z17fdtd_step1_kernelPfS_S_S_i'
GPGPU-Sim uArch: Shader 5 bind to kernel 1 '_Z17fdtd_step1_kernelPfS_S_S_i'
GPGPU-Sim uArch: Shader 6 bind to kernel 1 '_Z17fdtd_step1_kernelPfS_S_S_i'
GPGPU-Sim uArch: Shader 7 bind to kernel 1 '_Z17fdtd_step1_kernelPfS_S_S_i'
GPGPU-Sim uArch: Shader 8 bind to kernel 1 '_Z17fdtd_step1_kernelPfS_S_S_i'
GPGPU-Sim uArch: Shader 9 bind to kernel 1 '_Z17fdtd_step1_kernelPfS_S_S_i'
GPGPU-Sim uArch: Shader 10 bind to kernel 1 '_Z17fdtd_step1_kernelPfS_S_S_i'
GPGPU-Sim uArch: Shader 11 bind to kernel 1 '_Z17fdtd_step1_kernelPfS_S_S_i'
GPGPU-Sim uArch: Shader 12 bind to kernel 1 '_Z17fdtd_step1_kernelPfS_S_S_i'
GPGPU-Sim uArch: Shader 13 bind to kernel 1 '_Z17fdtd_step1_kernelPfS_S_S_i'
GPGPU-Sim uArch: Shader 14 bind to kernel 1 '_Z17fdtd_step1_kernelPfS_S_S_i'
GPGPU-Sim uArch: Shader 15 bind to kernel 1 '_Z17fdtd_step1_kernelPfS_S_S_i'
GPGPU-Sim uArch: Shader 16 bind to kernel 1 '_Z17fdtd_step1_kernelPfS_S_S_i'
GPGPU-Sim uArch: Shader 17 bind to kernel 1 '_Z17fdtd_step1_kernelPfS_S_S_i'
GPGPU-Sim uArch: Shader 18 bind to kernel 1 '_Z17fdtd_step1_kernelPfS_S_S_i'
GPGPU-Sim uArch: Shader 19 bind to kernel 1 '_Z17fdtd_step1_kernelPfS_S_S_i'
GPGPU-Sim uArch: Shader 20 bind to kernel 1 '_Z17fdtd_step1_kernelPfS_S_S_i'
GPGPU-Sim uArch: Shader 21 bind to kernel 1 '_Z17fdtd_step1_kernelPfS_S_S_i'
GPGPU-Sim uArch: Shader 22 bind to kernel 1 '_Z17fdtd_step1_kernelPfS_S_S_i'
GPGPU-Sim uArch: Shader 23 bind to kernel 1 '_Z17fdtd_step1_kernelPfS_S_S_i'
GPGPU-Sim uArch: Shader 24 bind to kernel 1 '_Z17fdtd_step1_kernelPfS_S_S_i'
GPGPU-Sim uArch: Shader 25 bind to kernel 1 '_Z17fdtd_step1_kernelPfS_S_S_i'
GPGPU-Sim uArch: Shader 26 bind to kernel 1 '_Z17fdtd_step1_kernelPfS_S_S_i'
GPGPU-Sim uArch: Shader 27 bind to kernel 1 '_Z17fdtd_step1_kernelPfS_S_S_i'
GPGPU-Sim uArch: Shader 0 bind to kernel 1 '_Z17fdtd_step1_kernelPfS_S_S_i'
GPGPU-Sim uArch: Shader 4 bind to kernel 1 '_Z17fdtd_step1_kernelPfS_S_S_i'
GPGPU-Sim uArch: Shader 5 bind to kernel 1 '_Z17fdtd_step1_kernelPfS_S_S_i'
GPGPU-Sim uArch: Shader 6 bind to kernel 1 '_Z17fdtd_step1_kernelPfS_S_S_i'
GPGPU-Sim uArch: Shader 7 bind to kernel 1 '_Z17fdtd_step1_kernelPfS_S_S_i'
GPGPU-Sim uArch: Shader 8 bind to kernel 1 '_Z17fdtd_step1_kernelPfS_S_S_i'
GPGPU-Sim uArch: Shader 9 bind to kernel 1 '_Z17fdtd_step1_kernelPfS_S_S_i'
GPGPU-Sim uArch: Shader 10 bind to kernel 1 '_Z17fdtd_step1_kernelPfS_S_S_i'
GPGPU-Sim uArch: Shader 11 bind to kernel 1 '_Z17fdtd_step1_kernelPfS_S_S_i'
GPGPU-Sim uArch: Shader 12 bind to kernel 1 '_Z17fdtd_step1_kernelPfS_S_S_i'
GPGPU-Sim uArch: Shader 13 bind to kernel 1 '_Z17fdtd_step1_kernelPfS_S_S_i'
GPGPU-Sim uArch: Shader 14 bind to kernel 1 '_Z17fdtd_step1_kernelPfS_S_S_i'
GPGPU-Sim uArch: Shader 15 bind to kernel 1 '_Z17fdtd_step1_kernelPfS_S_S_i'
GPGPU-Sim uArch: Shader 16 bind to kernel 1 '_Z17fdtd_step1_kernelPfS_S_S_i'
GPGPU-Sim uArch: Shader 17 bind to kernel 1 '_Z17fdtd_step1_kernelPfS_S_S_i'
GPGPU-Sim uArch: Shader 18 bind to kernel 1 '_Z17fdtd_step1_kernelPfS_S_S_i'
GPGPU-Sim uArch: Shader 19 bind to kernel 1 '_Z17fdtd_step1_kernelPfS_S_S_i'
GPGPU-Sim uArch: Shader 20 bind to kernel 1 '_Z17fdtd_step1_kernelPfS_S_S_i'
GPGPU-Sim uArch: Shader 21 bind to kernel 1 '_Z17fdtd_step1_kernelPfS_S_S_i'
GPGPU-Sim uArch: Shader 22 bind to kernel 1 '_Z17fdtd_step1_kernelPfS_S_S_i'
GPGPU-Sim uArch: Shader 23 bind to kernel 1 '_Z17fdtd_step1_kernelPfS_S_S_i'
GPGPU-Sim uArch: Shader 24 bind to kernel 1 '_Z17fdtd_step1_kernelPfS_S_S_i'
GPGPU-Sim uArch: Shader 4 bind to kernel 1 '_Z17fdtd_step1_kernelPfS_S_S_i'
GPGPU-Sim uArch: Shader 5 bind to kernel 1 '_Z17fdtd_step1_kernelPfS_S_S_i'
GPGPU-Sim uArch: Shader 6 bind to kernel 1 '_Z17fdtd_step1_kernelPfS_S_S_i'
GPGPU-Sim uArch: Shader 7 bind to kernel 1 '_Z17fdtd_step1_kernelPfS_S_S_i'
GPGPU-Sim uArch: Shader 8 bind to kernel 1 '_Z17fdtd_step1_kernelPfS_S_S_i'
GPGPU-Sim uArch: Shader 9 bind to kernel 1 '_Z17fdtd_step1_kernelPfS_S_S_i'
GPGPU-Sim uArch: Shader 10 bind to kernel 1 '_Z17fdtd_step1_kernelPfS_S_S_i'
GPGPU-Sim uArch: Shader 11 bind to kernel 1 '_Z17fdtd_step1_kernelPfS_S_S_i'
GPGPU-Sim uArch: Shader 12 bind to kernel 1 '_Z17fdtd_step1_kernelPfS_S_S_i'
GPGPU-Sim uArch: Shader 13 bind to kernel 1 '_Z17fdtd_step1_kernelPfS_S_S_i'
GPGPU-Sim uArch: Shader 14 bind to kernel 1 '_Z17fdtd_step1_kernelPfS_S_S_i'
GPGPU-Sim uArch: Shader 15 bind to kernel 1 '_Z17fdtd_step1_kernelPfS_S_S_i'
GPGPU-Sim uArch: Shader 16 bind to kernel 1 '_Z17fdtd_step1_kernelPfS_S_S_i'
GPGPU-Sim uArch: Shader 17 bind to kernel 1 '_Z17fdtd_step1_kernelPfS_S_S_i'
GPGPU-Sim uArch: Shader 18 bind to kernel 1 '_Z17fdtd_step1_kernelPfS_S_S_i'
GPGPU-Sim uArch: Shader 19 bind to kernel 1 '_Z17fdtd_step1_kernelPfS_S_S_i'
GPGPU-Sim uArch: Shader 20 bind to kernel 1 '_Z17fdtd_step1_kernelPfS_S_S_i'
GPGPU-Sim uArch: Shader 4 bind to kernel 1 '_Z17fdtd_step1_kernelPfS_S_S_i'
GPGPU-Sim uArch: Shader 5 bind to kernel 1 '_Z17fdtd_step1_kernelPfS_S_S_i'
GPGPU-Sim uArch: Shader 6 bind to kernel 1 '_Z17fdtd_step1_kernelPfS_S_S_i'
GPGPU-Sim uArch: Shader 7 bind to kernel 1 '_Z17fdtd_step1_kernelPfS_S_S_i'
GPGPU-Sim uArch: Shader 8 bind to kernel 1 '_Z17fdtd_step1_kernelPfS_S_S_i'
GPGPU-Sim uArch: Shader 9 bind to kernel 1 '_Z17fdtd_step1_kernelPfS_S_S_i'
GPGPU-Sim uArch: Shader 10 bind to kernel 1 '_Z17fdtd_step1_kernelPfS_S_S_i'
GPGPU-Sim uArch: Shader 11 bind to kernel 1 '_Z17fdtd_step1_kernelPfS_S_S_i'
GPGPU-Sim uArch: Shader 12 bind to kernel 1 '_Z17fdtd_step1_kernelPfS_S_S_i'
GPGPU-Sim uArch: Shader 13 bind to kernel 1 '_Z17fdtd_step1_kernelPfS_S_S_i'
GPGPU-Sim uArch: Shader 14 bind to kernel 1 '_Z17fdtd_step1_kernelPfS_S_S_i'
GPGPU-Sim uArch: Shader 15 bind to kernel 1 '_Z17fdtd_step1_kernelPfS_S_S_i'
GPGPU-Sim uArch: Shader 16 bind to kernel 1 '_Z17fdtd_step1_kernelPfS_S_S_i'
GPGPU-Sim uArch: Shader 4 bind to kernel 1 '_Z17fdtd_step1_kernelPfS_S_S_i'
GPGPU-Sim uArch: Shader 5 bind to kernel 1 '_Z17fdtd_step1_kernelPfS_S_S_i'
GPGPU-Sim uArch: Shader 6 bind to kernel 1 '_Z17fdtd_step1_kernelPfS_S_S_i'
GPGPU-Sim uArch: Shader 7 bind to kernel 1 '_Z17fdtd_step1_kernelPfS_S_S_i'
GPGPU-Sim uArch: Shader 8 bind to kernel 1 '_Z17fdtd_step1_kernelPfS_S_S_i'
GPGPU-Sim uArch: Shader 9 bind to kernel 1 '_Z17fdtd_step1_kernelPfS_S_S_i'
GPGPU-Sim uArch: Shader 10 bind to kernel 1 '_Z17fdtd_step1_kernelPfS_S_S_i'
GPGPU-Sim uArch: Shader 11 bind to kernel 1 '_Z17fdtd_step1_kernelPfS_S_S_i'
GPGPU-Sim uArch: Shader 12 bind to kernel 1 '_Z17fdtd_step1_kernelPfS_S_S_i'
GPGPU-Sim uArch: Shader 4 bind to kernel 1 '_Z17fdtd_step1_kernelPfS_S_S_i'
GPGPU-Sim uArch: Shader 5 bind to kernel 1 '_Z17fdtd_step1_kernelPfS_S_S_i'
GPGPU-Sim uArch: Shader 6 bind to kernel 1 '_Z17fdtd_step1_kernelPfS_S_S_i'
GPGPU-Sim uArch: Shader 7 bind to kernel 1 '_Z17fdtd_step1_kernelPfS_S_S_i'
GPGPU-Sim uArch: Shader 8 bind to kernel 1 '_Z17fdtd_step1_kernelPfS_S_S_i'
GPGPU-Sim uArch: Shader 9 bind to kernel 1 '_Z17fdtd_step1_kernelPfS_S_S_i'
GPGPU-Sim uArch: Shader 10 bind to kernel 1 '_Z17fdtd_step1_kernelPfS_S_S_i'
GPGPU-Sim uArch: Shader 11 bind to kernel 1 '_Z17fdtd_step1_kernelPfS_S_S_i'
GPGPU-Sim uArch: Shader 12 bind to kernel 1 '_Z17fdtd_step1_kernelPfS_S_S_i'
GPGPU-Sim uArch: Shader 13 bind to kernel 1 '_Z17fdtd_step1_kernelPfS_S_S_i'
GPGPU-Sim uArch: Shader 14 bind to kernel 1 '_Z17fdtd_step1_kernelPfS_S_S_i'
GPGPU-Sim uArch: Shader 15 bind to kernel 1 '_Z17fdtd_step1_kernelPfS_S_S_i'
GPGPU-Sim uArch: Shader 4 bind to kernel 1 '_Z17fdtd_step1_kernelPfS_S_S_i'
GPGPU-Sim uArch: Shader 5 bind to kernel 1 '_Z17fdtd_step1_kernelPfS_S_S_i'
GPGPU-Sim uArch: Shader 6 bind to kernel 1 '_Z17fdtd_step1_kernelPfS_S_S_i'
GPGPU-Sim uArch: Shader 7 bind to kernel 1 '_Z17fdtd_step1_kernelPfS_S_S_i'
GPGPU-Sim uArch: Shader 8 bind to kernel 1 '_Z17fdtd_step1_kernelPfS_S_S_i'
GPGPU-Sim uArch: Shader 9 bind to kernel 1 '_Z17fdtd_step1_kernelPfS_S_S_i'
GPGPU-Sim uArch: Shader 10 bind to kernel 1 '_Z17fdtd_step1_kernelPfS_S_S_i'
GPGPU-Sim uArch: Shader 11 bind to kernel 1 '_Z17fdtd_step1_kernelPfS_S_S_i'
GPGPU-Sim uArch: Shader 12 bind to kernel 1 '_Z17fdtd_step1_kernelPfS_S_S_i'
GPGPU-Sim uArch: Shader 13 bind to kernel 1 '_Z17fdtd_step1_kernelPfS_S_S_i'
GPGPU-Sim uArch: Shader 14 bind to kernel 1 '_Z17fdtd_step1_kernelPfS_S_S_i'
GPGPU-Sim uArch: Shader 15 bind to kernel 1 '_Z17fdtd_step1_kernelPfS_S_S_i'
GPGPU-Sim uArch: Shader 16 bind to kernel 1 '_Z17fdtd_step1_kernelPfS_S_S_i'
GPGPU-Sim uArch: Shader 17 bind to kernel 1 '_Z17fdtd_step1_kernelPfS_S_S_i'
GPGPU-Sim uArch: Shader 18 bind to kernel 1 '_Z17fdtd_step1_kernelPfS_S_S_i'
GPGPU-Sim uArch: Shader 19 bind to kernel 1 '_Z17fdtd_step1_kernelPfS_S_S_i'
GPGPU-Sim uArch: Shader 4 bind to kernel 1 '_Z17fdtd_step1_kernelPfS_S_S_i'
GPGPU-Sim uArch: Shader 5 bind to kernel 1 '_Z17fdtd_step1_kernelPfS_S_S_i'
GPGPU-Sim uArch: Shader 6 bind to kernel 1 '_Z17fdtd_step1_kernelPfS_S_S_i'
GPGPU-Sim uArch: Shader 7 bind to kernel 1 '_Z17fdtd_step1_kernelPfS_S_S_i'
GPGPU-Sim uArch: Shader 8 bind to kernel 1 '_Z17fdtd_step1_kernelPfS_S_S_i'
GPGPU-Sim uArch: Shader 9 bind to kernel 1 '_Z17fdtd_step1_kernelPfS_S_S_i'
GPGPU-Sim uArch: Shader 10 bind to kernel 1 '_Z17fdtd_step1_kernelPfS_S_S_i'
GPGPU-Sim uArch: Shader 11 bind to kernel 1 '_Z17fdtd_step1_kernelPfS_S_S_i'
GPGPU-Sim uArch: Shader 12 bind to kernel 1 '_Z17fdtd_step1_kernelPfS_S_S_i'
GPGPU-Sim uArch: Shader 13 bind to kernel 1 '_Z17fdtd_step1_kernelPfS_S_S_i'
GPGPU-Sim uArch: Shader 14 bind to kernel 1 '_Z17fdtd_step1_kernelPfS_S_S_i'
GPGPU-Sim uArch: Shader 15 bind to kernel 1 '_Z17fdtd_step1_kernelPfS_S_S_i'
GPGPU-Sim uArch: Shader 16 bind to kernel 1 '_Z17fdtd_step1_kernelPfS_S_S_i'
GPGPU-Sim uArch: Shader 17 bind to kernel 1 '_Z17fdtd_step1_kernelPfS_S_S_i'
GPGPU-Sim uArch: Shader 18 bind to kernel 1 '_Z17fdtd_step1_kernelPfS_S_S_i'
GPGPU-Sim uArch: Shader 19 bind to kernel 1 '_Z17fdtd_step1_kernelPfS_S_S_i'
GPGPU-Sim uArch: Shader 20 bind to kernel 1 '_Z17fdtd_step1_kernelPfS_S_S_i'
GPGPU-Sim uArch: Shader 21 bind to kernel 1 '_Z17fdtd_step1_kernelPfS_S_S_i'
GPGPU-Sim uArch: Shader 22 bind to kernel 1 '_Z17fdtd_step1_kernelPfS_S_S_i'
GPGPU-Sim uArch: Shader 23 bind to kernel 1 '_Z17fdtd_step1_kernelPfS_S_S_i'
GPGPU-Sim uArch: Shader 4 bind to kernel 1 '_Z17fdtd_step1_kernelPfS_S_S_i'
GPGPU-Sim uArch: Shader 5 bind to kernel 1 '_Z17fdtd_step1_kernelPfS_S_S_i'
GPGPU-Sim uArch: Shader 6 bind to kernel 1 '_Z17fdtd_step1_kernelPfS_S_S_i'
GPGPU-Sim uArch: Shader 7 bind to kernel 1 '_Z17fdtd_step1_kernelPfS_S_S_i'
GPGPU-Sim uArch: Shader 8 bind to kernel 1 '_Z17fdtd_step1_kernelPfS_S_S_i'
GPGPU-Sim uArch: Shader 9 bind to kernel 1 '_Z17fdtd_step1_kernelPfS_S_S_i'
GPGPU-Sim uArch: Shader 10 bind to kernel 1 '_Z17fdtd_step1_kernelPfS_S_S_i'
GPGPU-Sim uArch: Shader 11 bind to kernel 1 '_Z17fdtd_step1_kernelPfS_S_S_i'
GPGPU-Sim uArch: Shader 12 bind to kernel 1 '_Z17fdtd_step1_kernelPfS_S_S_i'
GPGPU-Sim uArch: Shader 13 bind to kernel 1 '_Z17fdtd_step1_kernelPfS_S_S_i'
GPGPU-Sim uArch: Shader 14 bind to kernel 1 '_Z17fdtd_step1_kernelPfS_S_S_i'
GPGPU-Sim uArch: Shader 15 bind to kernel 1 '_Z17fdtd_step1_kernelPfS_S_S_i'
GPGPU-Sim uArch: Shader 16 bind to kernel 1 '_Z17fdtd_step1_kernelPfS_S_S_i'
GPGPU-Sim uArch: Shader 17 bind to kernel 1 '_Z17fdtd_step1_kernelPfS_S_S_i'
GPGPU-Sim uArch: Shader 18 bind to kernel 1 '_Z17fdtd_step1_kernelPfS_S_S_i'
GPGPU-Sim uArch: Shader 19 bind to kernel 1 '_Z17fdtd_step1_kernelPfS_S_S_i'
GPGPU-Sim uArch: Shader 20 bind to kernel 1 '_Z17fdtd_step1_kernelPfS_S_S_i'
GPGPU-Sim uArch: Shader 21 bind to kernel 1 '_Z17fdtd_step1_kernelPfS_S_S_i'
GPGPU-Sim uArch: Shader 22 bind to kernel 1 '_Z17fdtd_step1_kernelPfS_S_S_i'
GPGPU-Sim uArch: Shader 23 bind to kernel 1 '_Z17fdtd_step1_kernelPfS_S_S_i'
GPGPU-Sim uArch: Shader 24 bind to kernel 1 '_Z17fdtd_step1_kernelPfS_S_S_i'
GPGPU-Sim uArch: Shader 25 bind to kernel 1 '_Z17fdtd_step1_kernelPfS_S_S_i'
GPGPU-Sim uArch: Shader 26 bind to kernel 1 '_Z17fdtd_step1_kernelPfS_S_S_i'
GPGPU-Sim uArch: Shader 27 bind to kernel 1 '_Z17fdtd_step1_kernelPfS_S_S_i'
GPGPU-Sim uArch: Shader 0 bind to kernel 1 '_Z17fdtd_step1_kernelPfS_S_S_i'
GPGPU-Sim uArch: Shader 4 bind to kernel 1 '_Z17fdtd_step1_kernelPfS_S_S_i'
GPGPU-Sim uArch: Shader 22 bind to kernel 1 '_Z17fdtd_step1_kernelPfS_S_S_i'
GPGPU-Sim uArch: Shader 23 bind to kernel 1 '_Z17fdtd_step1_kernelPfS_S_S_i'
GPGPU-Sim uArch: Shader 24 bind to kernel 1 '_Z17fdtd_step1_kernelPfS_S_S_i'
GPGPU-Sim uArch: Shader 25 bind to kernel 1 '_Z17fdtd_step1_kernelPfS_S_S_i'
GPGPU-Sim uArch: Shader 26 bind to kernel 1 '_Z17fdtd_step1_kernelPfS_S_S_i'
GPGPU-Sim uArch: Shader 27 bind to kernel 1 '_Z17fdtd_step1_kernelPfS_S_S_i'
GPGPU-Sim uArch: Shader 0 bind to kernel 1 '_Z17fdtd_step1_kernelPfS_S_S_i'
GPGPU-Sim uArch: Shader 1 bind to kernel 1 '_Z17fdtd_step1_kernelPfS_S_S_i'
GPGPU-Sim uArch: Shader 2 bind to kernel 1 '_Z17fdtd_step1_kernelPfS_S_S_i'
GPGPU-Sim uArch: Shader 3 bind to kernel 1 '_Z17fdtd_step1_kernelPfS_S_S_i'
GPGPU-Sim uArch: Shader 4 bind to kernel 1 '_Z17fdtd_step1_kernelPfS_S_S_i'
GPGPU-Sim uArch: Shader 5 bind to kernel 1 '_Z17fdtd_step1_kernelPfS_S_S_i'
GPGPU-Sim uArch: Shader 6 bind to kernel 1 '_Z17fdtd_step1_kernelPfS_S_S_i'
GPGPU-Sim uArch: Shader 7 bind to kernel 1 '_Z17fdtd_step1_kernelPfS_S_S_i'
GPGPU-Sim uArch: Shader 8 bind to kernel 1 '_Z17fdtd_step1_kernelPfS_S_S_i'
GPGPU-Sim uArch: Shader 9 bind to kernel 1 '_Z17fdtd_step1_kernelPfS_S_S_i'
GPGPU-Sim uArch: Shader 10 bind to kernel 1 '_Z17fdtd_step1_kernelPfS_S_S_i'
GPGPU-Sim uArch: Shader 11 bind to kernel 1 '_Z17fdtd_step1_kernelPfS_S_S_i'
GPGPU-Sim uArch: Shader 12 bind to kernel 1 '_Z17fdtd_step1_kernelPfS_S_S_i'
GPGPU-Sim uArch: Shader 13 bind to kernel 1 '_Z17fdtd_step1_kernelPfS_S_S_i'
GPGPU-Sim uArch: Shader 14 bind to kernel 1 '_Z17fdtd_step1_kernelPfS_S_S_i'
GPGPU-Sim uArch: Shader 15 bind to kernel 1 '_Z17fdtd_step1_kernelPfS_S_S_i'
GPGPU-Sim uArch: Shader 16 bind to kernel 1 '_Z17fdtd_step1_kernelPfS_S_S_i'
GPGPU-Sim uArch: Shader 22 bind to kernel 1 '_Z17fdtd_step1_kernelPfS_S_S_i'
GPGPU-Sim uArch: Shader 23 bind to kernel 1 '_Z17fdtd_step1_kernelPfS_S_S_i'
GPGPU-Sim uArch: Shader 24 bind to kernel 1 '_Z17fdtd_step1_kernelPfS_S_S_i'
GPGPU-Sim uArch: Shader 25 bind to kernel 1 '_Z17fdtd_step1_kernelPfS_S_S_i'
GPGPU-Sim uArch: Shader 26 bind to kernel 1 '_Z17fdtd_step1_kernelPfS_S_S_i'
GPGPU-Sim uArch: Shader 27 bind to kernel 1 '_Z17fdtd_step1_kernelPfS_S_S_i'
GPGPU-Sim uArch: Shader 0 bind to kernel 1 '_Z17fdtd_step1_kernelPfS_S_S_i'
GPGPU-Sim uArch: Shader 1 bind to kernel 1 '_Z17fdtd_step1_kernelPfS_S_S_i'
GPGPU-Sim uArch: Shader 2 bind to kernel 1 '_Z17fdtd_step1_kernelPfS_S_S_i'
GPGPU-Sim uArch: Shader 3 bind to kernel 1 '_Z17fdtd_step1_kernelPfS_S_S_i'
GPGPU-Sim uArch: Shader 4 bind to kernel 1 '_Z17fdtd_step1_kernelPfS_S_S_i'
GPGPU-Sim uArch: Shader 5 bind to kernel 1 '_Z17fdtd_step1_kernelPfS_S_S_i'
GPGPU-Sim uArch: Shader 6 bind to kernel 1 '_Z17fdtd_step1_kernelPfS_S_S_i'
GPGPU-Sim uArch: Shader 7 bind to kernel 1 '_Z17fdtd_step1_kernelPfS_S_S_i'
GPGPU-Sim uArch: Shader 8 bind to kernel 1 '_Z17fdtd_step1_kernelPfS_S_S_i'
GPGPU-Sim uArch: Shader 9 bind to kernel 1 '_Z17fdtd_step1_kernelPfS_S_S_i'
GPGPU-Sim uArch: Shader 10 bind to kernel 1 '_Z17fdtd_step1_kernelPfS_S_S_i'
GPGPU-Sim uArch: Shader 11 bind to kernel 1 '_Z17fdtd_step1_kernelPfS_S_S_i'
GPGPU-Sim uArch: Shader 12 bind to kernel 1 '_Z17fdtd_step1_kernelPfS_S_S_i'
GPGPU-Sim uArch: Shader 22 bind to kernel 1 '_Z17fdtd_step1_kernelPfS_S_S_i'
GPGPU-Sim uArch: Shader 23 bind to kernel 1 '_Z17fdtd_step1_kernelPfS_S_S_i'
GPGPU-Sim uArch: Shader 24 bind to kernel 1 '_Z17fdtd_step1_kernelPfS_S_S_i'
GPGPU-Sim uArch: Shader 25 bind to kernel 1 '_Z17fdtd_step1_kernelPfS_S_S_i'
GPGPU-Sim uArch: Shader 26 bind to kernel 1 '_Z17fdtd_step1_kernelPfS_S_S_i'
GPGPU-Sim uArch: Shader 27 bind to kernel 1 '_Z17fdtd_step1_kernelPfS_S_S_i'
GPGPU-Sim uArch: Shader 0 bind to kernel 1 '_Z17fdtd_step1_kernelPfS_S_S_i'
GPGPU-Sim uArch: Shader 1 bind to kernel 1 '_Z17fdtd_step1_kernelPfS_S_S_i'
GPGPU-Sim uArch: Shader 2 bind to kernel 1 '_Z17fdtd_step1_kernelPfS_S_S_i'
GPGPU-Sim uArch: Shader 3 bind to kernel 1 '_Z17fdtd_step1_kernelPfS_S_S_i'
GPGPU-Sim uArch: Shader 4 bind to kernel 1 '_Z17fdtd_step1_kernelPfS_S_S_i'
GPGPU-Sim uArch: Shader 5 bind to kernel 1 '_Z17fdtd_step1_kernelPfS_S_S_i'
GPGPU-Sim uArch: Shader 6 bind to kernel 1 '_Z17fdtd_step1_kernelPfS_S_S_i'
GPGPU-Sim uArch: Shader 7 bind to kernel 1 '_Z17fdtd_step1_kernelPfS_S_S_i'
GPGPU-Sim uArch: Shader 8 bind to kernel 1 '_Z17fdtd_step1_kernelPfS_S_S_i'
GPGPU-Sim uArch: Shader 22 bind to kernel 1 '_Z17fdtd_step1_kernelPfS_S_S_i'
GPGPU-Sim uArch: Shader 23 bind to kernel 1 '_Z17fdtd_step1_kernelPfS_S_S_i'
GPGPU-Sim uArch: Shader 24 bind to kernel 1 '_Z17fdtd_step1_kernelPfS_S_S_i'
GPGPU-Sim uArch: Shader 25 bind to kernel 1 '_Z17fdtd_step1_kernelPfS_S_S_i'
GPGPU-Sim uArch: Shader 26 bind to kernel 1 '_Z17fdtd_step1_kernelPfS_S_S_i'
GPGPU-Sim uArch: Shader 27 bind to kernel 1 '_Z17fdtd_step1_kernelPfS_S_S_i'
GPGPU-Sim uArch: Shader 0 bind to kernel 1 '_Z17fdtd_step1_kernelPfS_S_S_i'
GPGPU-Sim uArch: Shader 1 bind to kernel 1 '_Z17fdtd_step1_kernelPfS_S_S_i'
GPGPU-Sim uArch: Shader 2 bind to kernel 1 '_Z17fdtd_step1_kernelPfS_S_S_i'
GPGPU-Sim uArch: Shader 3 bind to kernel 1 '_Z17fdtd_step1_kernelPfS_S_S_i'
GPGPU-Sim uArch: Shader 4 bind to kernel 1 '_Z17fdtd_step1_kernelPfS_S_S_i'
GPGPU-Sim uArch: Shader 22 bind to kernel 1 '_Z17fdtd_step1_kernelPfS_S_S_i'
GPGPU-Sim uArch: Shader 23 bind to kernel 1 '_Z17fdtd_step1_kernelPfS_S_S_i'
GPGPU-Sim uArch: Shader 24 bind to kernel 1 '_Z17fdtd_step1_kernelPfS_S_S_i'
GPGPU-Sim uArch: Shader 25 bind to kernel 1 '_Z17fdtd_step1_kernelPfS_S_S_i'
GPGPU-Sim uArch: Shader 26 bind to kernel 1 '_Z17fdtd_step1_kernelPfS_S_S_i'
GPGPU-Sim uArch: Shader 27 bind to kernel 1 '_Z17fdtd_step1_kernelPfS_S_S_i'
GPGPU-Sim uArch: Shader 0 bind to kernel 1 '_Z17fdtd_step1_kernelPfS_S_S_i'
GPGPU-Sim uArch: Shader 1 bind to kernel 1 '_Z17fdtd_step1_kernelPfS_S_S_i'
GPGPU-Sim uArch: Shader 2 bind to kernel 1 '_Z17fdtd_step1_kernelPfS_S_S_i'
GPGPU-Sim uArch: Shader 3 bind to kernel 1 '_Z17fdtd_step1_kernelPfS_S_S_i'
GPGPU-Sim uArch: Shader 22 bind to kernel 1 '_Z17fdtd_step1_kernelPfS_S_S_i'
GPGPU-Sim uArch: Shader 23 bind to kernel 1 '_Z17fdtd_step1_kernelPfS_S_S_i'
GPGPU-Sim uArch: Shader 24 bind to kernel 1 '_Z17fdtd_step1_kernelPfS_S_S_i'
GPGPU-Sim uArch: Shader 25 bind to kernel 1 '_Z17fdtd_step1_kernelPfS_S_S_i'
GPGPU-Sim uArch: Shader 26 bind to kernel 1 '_Z17fdtd_step1_kernelPfS_S_S_i'
GPGPU-Sim uArch: Shader 27 bind to kernel 1 '_Z17fdtd_step1_kernelPfS_S_S_i'
GPGPU-Sim uArch: Shader 0 bind to kernel 1 '_Z17fdtd_step1_kernelPfS_S_S_i'
GPGPU-Sim uArch: Shader 1 bind to kernel 1 '_Z17fdtd_step1_kernelPfS_S_S_i'
GPGPU-Sim uArch: Shader 2 bind to kernel 1 '_Z17fdtd_step1_kernelPfS_S_S_i'
GPGPU-Sim uArch: Shader 3 bind to kernel 1 '_Z17fdtd_step1_kernelPfS_S_S_i'
GPGPU-Sim uArch: Shader 4 bind to kernel 1 '_Z17fdtd_step1_kernelPfS_S_S_i'
GPGPU-Sim uArch: Shader 5 bind to kernel 1 '_Z17fdtd_step1_kernelPfS_S_S_i'
GPGPU-Sim uArch: Shader 6 bind to kernel 1 '_Z17fdtd_step1_kernelPfS_S_S_i'
GPGPU-Sim uArch: Shader 7 bind to kernel 1 '_Z17fdtd_step1_kernelPfS_S_S_i'
Destroy streams for kernel 1: size 0
kernel_name = _Z17fdtd_step1_kernelPfS_S_S_i 
kernel_launch_uid = 1 
gpu_sim_cycle = 7354231
gpu_sim_insn = 49297200
gpu_ipc =       6.7032
gpu_tot_sim_cycle = 7576381
gpu_tot_sim_insn = 49297200
gpu_tot_ipc =       6.5067
gpu_tot_issued_cta = 5700
max_total_param_size = 0
gpu_stall_dramfull = 552
gpu_stall_icnt2sh    = 30333
partiton_reqs_in_parallel = 161792530
partiton_reqs_in_parallel_total    = 0
partiton_level_parallism =      21.9999
partiton_level_parallism_total  =      21.3549
partiton_reqs_in_parallel_util = 161792530
partiton_reqs_in_parallel_util_total    = 0
gpu_sim_cycle_parition_util = 7354231
gpu_tot_sim_cycle_parition_util    = 0
partiton_level_parallism_util =      21.9999
partiton_level_parallism_util_total  =      21.9999
partiton_replys_in_parallel = 271199
partiton_replys_in_parallel_total    = 0
L2_BW  =       3.4953 GB/Sec
L2_BW_total  =       3.3928 GB/Sec
gpu_total_sim_rate=5139

========= Core cache stats =========
L1I_cache:
	L1I_total_cache_accesses = 866248
	L1I_total_cache_misses = 1981
	L1I_total_cache_miss_rate = 0.0023
	L1I_total_cache_pending_hits = 0
	L1I_total_cache_reservation_fails = 6846
L1D_cache:
	L1D_cache_core[0]: Access = 0, Miss = 0, Miss_rate = -nan, Pending_hits = 0, Reservation_fails = 0
	L1D_cache_core[1]: Access = 0, Miss = 0, Miss_rate = -nan, Pending_hits = 0, Reservation_fails = 0
	L1D_cache_core[2]: Access = 0, Miss = 0, Miss_rate = -nan, Pending_hits = 0, Reservation_fails = 0
	L1D_cache_core[3]: Access = 0, Miss = 0, Miss_rate = -nan, Pending_hits = 0, Reservation_fails = 0
	L1D_cache_core[4]: Access = 0, Miss = 0, Miss_rate = -nan, Pending_hits = 0, Reservation_fails = 0
	L1D_cache_core[5]: Access = 0, Miss = 0, Miss_rate = -nan, Pending_hits = 0, Reservation_fails = 0
	L1D_cache_core[6]: Access = 0, Miss = 0, Miss_rate = -nan, Pending_hits = 0, Reservation_fails = 0
	L1D_cache_core[7]: Access = 0, Miss = 0, Miss_rate = -nan, Pending_hits = 0, Reservation_fails = 0
	L1D_cache_core[8]: Access = 0, Miss = 0, Miss_rate = -nan, Pending_hits = 0, Reservation_fails = 0
	L1D_cache_core[9]: Access = 0, Miss = 0, Miss_rate = -nan, Pending_hits = 0, Reservation_fails = 0
	L1D_cache_core[10]: Access = 0, Miss = 0, Miss_rate = -nan, Pending_hits = 0, Reservation_fails = 0
	L1D_cache_core[11]: Access = 0, Miss = 0, Miss_rate = -nan, Pending_hits = 0, Reservation_fails = 0
	L1D_cache_core[12]: Access = 0, Miss = 0, Miss_rate = -nan, Pending_hits = 0, Reservation_fails = 0
	L1D_cache_core[13]: Access = 0, Miss = 0, Miss_rate = -nan, Pending_hits = 0, Reservation_fails = 0
	L1D_cache_core[14]: Access = 0, Miss = 0, Miss_rate = -nan, Pending_hits = 0, Reservation_fails = 0
	L1D_cache_core[15]: Access = 0, Miss = 0, Miss_rate = -nan, Pending_hits = 0, Reservation_fails = 0
	L1D_cache_core[16]: Access = 0, Miss = 0, Miss_rate = -nan, Pending_hits = 0, Reservation_fails = 0
	L1D_cache_core[17]: Access = 0, Miss = 0, Miss_rate = -nan, Pending_hits = 0, Reservation_fails = 0
	L1D_cache_core[18]: Access = 0, Miss = 0, Miss_rate = -nan, Pending_hits = 0, Reservation_fails = 0
	L1D_cache_core[19]: Access = 0, Miss = 0, Miss_rate = -nan, Pending_hits = 0, Reservation_fails = 0
	L1D_cache_core[20]: Access = 0, Miss = 0, Miss_rate = -nan, Pending_hits = 0, Reservation_fails = 0
	L1D_cache_core[21]: Access = 0, Miss = 0, Miss_rate = -nan, Pending_hits = 0, Reservation_fails = 0
	L1D_cache_core[22]: Access = 0, Miss = 0, Miss_rate = -nan, Pending_hits = 0, Reservation_fails = 0
	L1D_cache_core[23]: Access = 0, Miss = 0, Miss_rate = -nan, Pending_hits = 0, Reservation_fails = 0
	L1D_cache_core[24]: Access = 0, Miss = 0, Miss_rate = -nan, Pending_hits = 0, Reservation_fails = 0
	L1D_cache_core[25]: Access = 0, Miss = 0, Miss_rate = -nan, Pending_hits = 0, Reservation_fails = 0
	L1D_cache_core[26]: Access = 0, Miss = 0, Miss_rate = -nan, Pending_hits = 0, Reservation_fails = 0
	L1D_cache_core[27]: Access = 0, Miss = 0, Miss_rate = -nan, Pending_hits = 0, Reservation_fails = 0
	L1D_total_cache_accesses = 0
	L1D_total_cache_misses = 0
	L1D_total_cache_pending_hits = 0
	L1D_total_cache_reservation_fails = 0
	L1D_cache_data_port_util = 0.000
	L1D_cache_fill_port_util = 0.000
L1C_cache:
	L1C_total_cache_accesses = 182400
	L1C_total_cache_misses = 1792
	L1C_total_cache_miss_rate = 0.0098
	L1C_total_cache_pending_hits = 0
	L1C_total_cache_reservation_fails = 4886
L1T_cache:
	L1T_total_cache_accesses = 0
	L1T_total_cache_misses = 0
	L1T_total_cache_pending_hits = 0
	L1T_total_cache_reservation_fails = 0

Total_core_cache_stats:
	Total_core_cache_stats_breakdown[GLOBAL_ACC_R][HIT] = 0
	Total_core_cache_stats_breakdown[GLOBAL_ACC_R][HIT_RESERVED] = 0
	Total_core_cache_stats_breakdown[GLOBAL_ACC_R][MISS] = 0
	Total_core_cache_stats_breakdown[GLOBAL_ACC_R][RESERVATION_FAIL] = 0
	Total_core_cache_stats_breakdown[LOCAL_ACC_R][HIT] = 0
	Total_core_cache_stats_breakdown[LOCAL_ACC_R][HIT_RESERVED] = 0
	Total_core_cache_stats_breakdown[LOCAL_ACC_R][MISS] = 0
	Total_core_cache_stats_breakdown[LOCAL_ACC_R][RESERVATION_FAIL] = 0
	Total_core_cache_stats_breakdown[CONST_ACC_R][HIT] = 180608
	Total_core_cache_stats_breakdown[CONST_ACC_R][HIT_RESERVED] = 0
	Total_core_cache_stats_breakdown[CONST_ACC_R][MISS] = 1792
	Total_core_cache_stats_breakdown[CONST_ACC_R][RESERVATION_FAIL] = 4886
	Total_core_cache_stats_breakdown[TEXTURE_ACC_R][HIT] = 0
	Total_core_cache_stats_breakdown[TEXTURE_ACC_R][HIT_RESERVED] = 0
	Total_core_cache_stats_breakdown[TEXTURE_ACC_R][MISS] = 0
	Total_core_cache_stats_breakdown[TEXTURE_ACC_R][RESERVATION_FAIL] = 0
	Total_core_cache_stats_breakdown[GLOBAL_ACC_W][HIT] = 0
	Total_core_cache_stats_breakdown[GLOBAL_ACC_W][HIT_RESERVED] = 0
	Total_core_cache_stats_breakdown[GLOBAL_ACC_W][MISS] = 0
	Total_core_cache_stats_breakdown[GLOBAL_ACC_W][RESERVATION_FAIL] = 0
	Total_core_cache_stats_breakdown[LOCAL_ACC_W][HIT] = 0
	Total_core_cache_stats_breakdown[LOCAL_ACC_W][HIT_RESERVED] = 0
	Total_core_cache_stats_breakdown[LOCAL_ACC_W][MISS] = 0
	Total_core_cache_stats_breakdown[LOCAL_ACC_W][RESERVATION_FAIL] = 0
	Total_core_cache_stats_breakdown[L1_WRBK_ACC][HIT] = 0
	Total_core_cache_stats_breakdown[L1_WRBK_ACC][HIT_RESERVED] = 0
	Total_core_cache_stats_breakdown[L1_WRBK_ACC][MISS] = 0
	Total_core_cache_stats_breakdown[L1_WRBK_ACC][RESERVATION_FAIL] = 0
	Total_core_cache_stats_breakdown[L2_WRBK_ACC][HIT] = 0
	Total_core_cache_stats_breakdown[L2_WRBK_ACC][HIT_RESERVED] = 0
	Total_core_cache_stats_breakdown[L2_WRBK_ACC][MISS] = 0
	Total_core_cache_stats_breakdown[L2_WRBK_ACC][RESERVATION_FAIL] = 0
	Total_core_cache_stats_breakdown[INST_ACC_R][HIT] = 864267
	Total_core_cache_stats_breakdown[INST_ACC_R][HIT_RESERVED] = 0
	Total_core_cache_stats_breakdown[INST_ACC_R][MISS] = 1981
	Total_core_cache_stats_breakdown[INST_ACC_R][RESERVATION_FAIL] = 6846
	Total_core_cache_stats_breakdown[L1_WR_ALLOC_R][HIT] = 0
	Total_core_cache_stats_breakdown[L1_WR_ALLOC_R][HIT_RESERVED] = 0
	Total_core_cache_stats_breakdown[L1_WR_ALLOC_R][MISS] = 0
	Total_core_cache_stats_breakdown[L1_WR_ALLOC_R][RESERVATION_FAIL] = 0
	Total_core_cache_stats_breakdown[L2_WR_ALLOC_R][HIT] = 0
	Total_core_cache_stats_breakdown[L2_WR_ALLOC_R][HIT_RESERVED] = 0
	Total_core_cache_stats_breakdown[L2_WR_ALLOC_R][MISS] = 0
	Total_core_cache_stats_breakdown[L2_WR_ALLOC_R][RESERVATION_FAIL] = 0
	Total_core_cache_stats_breakdown[CONST_ACC_R][TOTAL_ACCESS] = 182400
	Total_core_cache_stats_breakdown[INST_ACC_R][TOTAL_ACCESS] = 866248
Shader 0 warp_id issue ditsribution:
warp_id:
0, 1, 2, 3, 4, 5, 6, 7, 8, 9, 10, 11, 12, 13, 14, 15, 16, 17, 18, 19, 20, 21, 22, 23, 24, 25, 26, 27, 28, 29, 30, 31, 32, 33, 34, 35, 36, 37, 38, 39, 40, 41, 42, 43, 44, 45, 46, 47, 48, 49, 50, 51, 52, 53, 54, 55, 56, 57, 58, 59, 60, 61, 62, 63, 
distro:
1123, 1144, 1132, 1144, 1132, 1143, 1132, 1143, 1131, 1143, 1131, 1143, 1130, 1141, 1130, 1131, 1131, 1119, 1131, 1120, 1131, 1122, 1131, 1134, 1131, 1144, 1131, 1129, 1142, 1129, 1142, 1128, 1099, 1097, 1099, 1088, 1099, 1088, 1100, 1088, 1100, 1087, 1100, 1087, 1100, 1085, 1098, 1075, 1088, 1077, 1087, 1076, 1090, 1075, 1090, 1078, 1100, 1087, 1100, 1082, 1098, 1089, 1100, 1084, 
gpgpu_n_tot_thrd_icount = 52521472
gpgpu_n_tot_w_icount = 1641296
gpgpu_n_stall_shd_mem = 93649
gpgpu_n_mem_read_local = 0
gpgpu_n_mem_write_local = 0
gpgpu_n_mem_read_global = 203287
gpgpu_n_mem_write_global = 67800
gpgpu_n_mem_texture = 0
gpgpu_n_mem_const = 28
gpgpu_n_load_insn  = 4317600
gpgpu_n_store_insn = 1440000
gpgpu_n_shmem_insn = 0
gpgpu_n_tex_insn = 0
gpgpu_n_const_mem_insn = 0
gpgpu_n_param_mem_insn = 5836800
gpgpu_n_shmem_bkconflict = 0
gpgpu_n_cache_bkconflict = 0
gpgpu_n_intrawarp_mshr_merge = 0
gpgpu_n_cmem_portconflict = 4886
gpgpu_stall_shd_mem[c_mem][bk_conf] = 4886
gpgpu_stall_shd_mem[c_mem][mshr_rc] = 0
gpgpu_stall_shd_mem[c_mem][icnt_rc] = 0
gpgpu_stall_shd_mem[c_mem][data_port_stall] = 0
gpgpu_stall_shd_mem[t_mem][mshr_rc] = 0
gpgpu_stall_shd_mem[t_mem][icnt_rc] = 0
gpgpu_stall_shd_mem[t_mem][data_port_stall] = 0
gpgpu_stall_shd_mem[s_mem][bk_conf] = 0
gpgpu_stall_shd_mem[gl_mem][bk_conf] = 0
gpgpu_stall_shd_mem[gl_mem][coal_stall] = 88763
gpgpu_stall_shd_mem[gl_mem][data_port_stall] = 0
gpgpu_stall_shd_mem[g_mem_ld][mshr_rc] = 0
gpgpu_stall_shd_mem[g_mem_ld][icnt_rc] = 0
gpgpu_stall_shd_mem[g_mem_ld][wb_icnt_rc] = 0
gpgpu_stall_shd_mem[g_mem_ld][wb_rsrv_fail] = 0
gpgpu_stall_shd_mem[g_mem_st][mshr_rc] = 0
gpgpu_stall_shd_mem[g_mem_st][icnt_rc] = 0
gpgpu_stall_shd_mem[g_mem_st][wb_icnt_rc] = 0
gpgpu_stall_shd_mem[g_mem_st][wb_rsrv_fail] = 0
gpgpu_stall_shd_mem[l_mem_ld][mshr_rc] = 0
gpgpu_stall_shd_mem[l_mem_ld][icnt_rc] = 0
gpgpu_stall_shd_mem[l_mem_ld][wb_icnt_rc] = 0
gpgpu_stall_shd_mem[l_mem_ld][wb_rsrv_fail] = 0
gpgpu_stall_shd_mem[l_mem_st][mshr_rc] = 0
gpgpu_stall_shd_mem[l_mem_st][icnt_rc] = 0
gpgpu_stall_shd_mem[l_mem_ld][wb_icnt_rc] = 0
gpgpu_stall_shd_mem[l_mem_ld][wb_rsrv_fail] = 0
gpu_reg_bank_conflict_stalls = 0
Warp Occupancy Distribution:
Stall:144460	W0_Idle:13220898	W0_Scoreboard:397161860	W1:0	W2:0	W3:0	W4:0	W5:0	W6:0	W7:0	W8:0	W9:0	W10:0	W11:0	W12:0	W13:0	W14:0	W15:0	W16:21592	W17:0	W18:0	W19:0	W20:0	W21:0	W22:0	W23:0	W24:0	W25:0	W26:0	W27:0	W28:0	W29:0	W30:0	W31:0	W32:1619704
traffic_breakdown_coretomem[CONST_ACC_R] = 224 {8:28,}
traffic_breakdown_coretomem[GLOBAL_ACC_R] = 1626296 {8:203287,}
traffic_breakdown_coretomem[GLOBAL_ACC_W] = 6302400 {72:45600,136:22200,}
traffic_breakdown_coretomem[INST_ACC_R] = 672 {8:84,}
traffic_breakdown_memtocore[CONST_ACC_R] = 2016 {72:28,}
traffic_breakdown_memtocore[GLOBAL_ACC_R] = 18893112 {40:38,72:136723,136:66526,}
traffic_breakdown_memtocore[GLOBAL_ACC_W] = 542400 {8:67800,}
traffic_breakdown_memtocore[INST_ACC_R] = 11424 {136:84,}
maxmrqlatency = 128 
maxdqlatency = 0 
maxmflatency = 151157 
averagemflatency = 63911 
max_icnt2mem_latency = 150908 
max_icnt2sh_latency = 7576380 
mrq_lat_table:71312 	6472 	3363 	12356 	24108 	5679 	316 	2 	0 	0 	0 	0 	0 	0 	0 	0 	0 	0 	0 	0 	0 	0 	0 	0 	0 	0 	0 	0 	0 	0 	0 	0 	
dq_lat_table:0 	0 	0 	0 	0 	0 	0 	0 	0 	0 	0 	0 	0 	0 	0 	0 	0 	0 	0 	0 	0 	0 	0 	0 	0 	0 	0 	0 	0 	0 	0 	0 	
mf_lat_table:0 	0 	0 	0 	0 	0 	0 	74614 	9499 	0 	0 	2214 	5038 	7508 	14884 	32909 	62141 	62308 	0 	0 	0 	0 	0 	0 	0 	0 	0 	0 	0 	0 	0 	0 	
icnt2mem_lat_table:0 	0 	70847 	6671 	67 	1 	6603 	8 	0 	0 	0 	2214 	5038 	7508 	14884 	32909 	62141 	62308 	0 	0 	0 	0 	0 	0 	
icnt2sh_lat_table:0 	0 	125842 	72985 	4196 	292 	0 	0 	0 	0 	0 	0 	0 	0 	0 	0 	0 	0 	2671 	4357 	9211 	19481 	32080 	0 	
mf_lat_pw_table:0 	0 	0 	0 	0 	0 	0 	474 	7 	0 	0 	30 	60 	86 	189 	451 	1593 	526 	0 	0 	0 	0 	0 	0 	0 	0 	0 	0 	0 	0 	0 	0 	
maximum concurrent accesses to same row:
dram[0]:        16        16        16        16        16        16        17        17        16        16        16        16        16        16        16        16 
dram[1]:        16        16        16        16        16        16        17        17        16        16        16        16        16        16        16        16 
dram[2]:        16        16        16        16        16        16        17        17        16        16        16        16        16        16        16        16 
dram[3]:        16        16        16        16        16        16        16        16        16        16        16        16        16        16        16        16 
dram[4]:        16        16        16        16        16        16        16        16        16        16        16        16        16        16        16        16 
dram[5]:        16        16        16        16        16        16        16        16        16        16        16        16        16        16        16        16 
dram[6]:        16        16        16        16        16        16        16        16        16        16        16        16        16        16        16        16 
dram[7]:        16        16        16        16        16        16        16        16        16        16        16        16        16        16        16        16 
dram[8]:        16        16        16        16        16        16        16        16        16        16        16        16        16        16        16        16 
dram[9]:        16        16        16        16        16        16        16        16        16        16        16        16        16        16        16        16 
dram[10]:        16        16        16        16        16        16        16        16        16        16        16        16        16        16        16        16 
maximum service time to same row:
dram[0]:    394155    394155    396760    396760    396759    394155    396760    396760    396761    396759    378526    378524    401969    401970    394155    394155 
dram[1]:    375920    375920    396759    396761    394155    394155    396760    396760    396759    396761    378524    378526    401970    401969    394154    394159 
dram[2]:    375921    375919    396761    396759    394155    394155    396759    396761    396760    396760    378524    375920    401970    401969    394159    394154 
dram[3]:    375919    375921    396759    396761    394155    391549    396760    396760    396760    396760    375919    375921    401969    401970    394154    394156 
dram[4]:    375920    375920    396759    396761    391551    391549    396760    396760    396760    396760    375920    375920    401969    401970    394156    394154 
dram[5]:    375919    375921    396759    396761    391549    391551    396760    396760    396759    396761    375919    375921    401969    401970    394155    394155 
dram[6]:    375919    375921    396759    396761    391550    391550    396760    396760    396759    396761    375920    375920    401969    401970    394154    394156 
dram[7]:    375920    375920    396760    396760    391550    391550    396759    396761    396759    396761    375920    375920    401970    401969    394153    394155 
dram[8]:    375919    375921    396759    396761    391549    391551    396761    396759    396759    396761    375920    375920    401970    401969    394154    394154 
dram[9]:    375920    375920    396761    396759    396760    396760    396760    396760    396760    396760    375920    396759    401969    401970    394153    394155 
dram[10]:    375920    394156    396758    396757    396759    396761    396761    396759    396760    396760    378525    378525    401970    401969    394155    394155 
average row accesses per activate:
dram[0]:  2.974684  2.983051  2.697318  2.782609  2.801620  2.735178  2.838710  2.921162  2.569343  2.617100  2.793651  2.838710  2.912863  2.900826  2.707692  2.687023 
dram[1]:  3.008547  3.008547  2.687023  2.707692  2.813008  2.756972  2.861789  2.909091  2.666667  2.656604  2.842742  2.897119  2.877049  2.808000  2.636704  2.656604 
dram[2]:  2.909091  3.060869  2.718147  2.739300  2.756972  2.735178  2.873469  2.925311  2.541516  2.578755  2.861789  2.760784  2.826613  2.849593  2.636704  2.687023 
dram[3]:  2.995745  3.074236  2.656604  2.697318  2.651341  2.671815  2.933333  2.957983  2.597786  2.617100  2.718147  2.718147  2.838057  2.884774  2.707692  2.656604 
dram[4]:  2.933333  2.970464  2.750000  2.707692  2.631179  2.703125  2.933333  2.983051  2.676806  2.707692  2.728682  2.718147  2.849593  2.815261  2.563636  2.620818 
dram[5]:  2.945607  2.897119  2.666667  2.687023  2.682171  2.756972  2.995745  3.034483  2.607407  2.646616  2.782609  2.782609  2.849593  2.908714  2.601476  2.656604 
dram[6]:  2.970464  2.957983  2.718147  2.666667  2.776000  2.821138  2.933333  2.957983  2.656604  2.676806  2.739300  2.697318  2.849593  2.884774  2.739300  2.718147 
dram[7]:  2.909091  2.921162  2.636704  2.617100  2.787148  2.844262  2.983051  2.983051  2.607407  2.607407  2.687023  2.771654  2.861224  2.896694  2.718147  2.739300 
dram[8]:  2.850202  2.838710  2.588235  2.656604  2.721569  2.787148  3.060869  3.087719  2.588235  2.607407  2.707692  2.771654  2.774704  2.888889  2.728682  2.646616 
dram[9]:  2.838710  2.873469  2.646616  2.676806  2.721569  2.753968  3.008547  2.921162  2.560000  2.578755  2.771654  2.827309  2.853658  2.808000  2.646616  2.656604 
dram[10]:  2.957983  3.060869  2.718147  2.728682  2.840164  2.760956  2.850202  2.804781  2.597786  2.646616  2.782609  2.861789  2.830645  2.830645  2.666667  2.687023 
average row locality = 123608/44528 = 2.775961
number of total memory accesses made:
dram[0]:         0         0         0         0         0         0         0         0         0         0         0         0         0         0         0         0 
dram[1]:         0         0         0         0         0         0         0         0         0         0         0         0         0         0         0         0 
dram[2]:         0         0         0         0         0         0         0         0         0         0         0         0         0         0         0         0 
dram[3]:         0         0         0         0         0         0         0         0         0         0         0         0         0         0         0         0 
dram[4]:         0         0         0         0         0         0         0         0         0         0         0         0         0         0         0         0 
dram[5]:         0         0         0         0         0         0         0         0         0         0         0         0         0         0         0         0 
dram[6]:         0         0         0         0         0         0         0         0         0         0         0         0         0         0         0         0 
dram[7]:         0         0         0         0         0         0         0         0         0         0         0         0         0         0         0         0 
dram[8]:         0         0         0         0         0         0         0         0         0         0         0         0         0         0         0         0 
dram[9]:         0         0         0         0         0         0         0         0         0         0         0         0         0         0         0         0 
dram[10]:         0         0         0         0         0         0         0         0         0         0         0         0         0         0         0         0 
total accesses: 0
min_bank_accesses = 0!
min_chip_accesses = 0!
number of total read accesses:
dram[0]:       513       512       512       512       509       509       512       512       512       512       512       512       510       510       512       512 
dram[1]:       512       512       512       512       509       509       512       512       512       512       513       512       510       510       512       512 
dram[2]:       512       512       512       512       509       509       512       512       512       512       512       512       509       509       512       512 
dram[3]:       512       512       512       512       509       509       512       512       512       512       512       512       509       509       512       512 
dram[4]:       512       512       512       512       509       509       512       512       512       512       512       512       509       509       513       513 
dram[5]:       512       512       512       512       509       509       512       512       512       512       512       512       509       509       513       512 
dram[6]:       512       512       512       512       510       510       512       512       512       512       512       512       509       509       512       512 
dram[7]:       512       512       512       512       510       510       512       512       512       512       512       512       509       509       512       512 
dram[8]:       512       512       512       512       510       510       512       512       512       512       512       512       510       510       512       512 
dram[9]:       512       512       512       512       510       510       512       512       512       512       512       512       510       510       512       512 
dram[10]:       512       512       512       512       510       510       512       512       512       512       512       512       510       510       512       512 
total reads: 90005
bank skew: 513/509 = 1.01
chip skew: 8184/8180 = 1.00
number of total write accesses:
dram[0]:       192       192       192       192       183       183       192       192       192       192       192       192       192       192       192       192 
dram[1]:       192       192       192       192       183       183       192       192       192       192       192       192       192       192       192       192 
dram[2]:       192       192       192       192       183       183       192       193       192       192       192       192       192       192       192       192 
dram[3]:       192       192       192       192       183       183       192       192       192       192       192       192       192       192       192       192 
dram[4]:       192       192       192       192       183       183       192       192       192       192       192       192       192       192       192       192 
dram[5]:       192       192       192       192       183       183       192       192       192       192       192       192       192       192       192       192 
dram[6]:       192       192       192       192       184       184       192       192       192       192       192       192       192       192       192       192 
dram[7]:       192       192       192       192       184       184       192       192       192       192       192       192       192       192       192       192 
dram[8]:       192       192       192       192       184       184       192       192       192       192       192       192       192       192       192       192 
[...]
F: 10927970----T: 10930575 	 St: c04b5000 Sz: 4096 	 Sm: 0 	 T: memcpy_h2d(1.758947)
F: 10930575----T: 10933180 	 St: c04b4000 Sz: 4096 	 Sm: 0 	 T: memcpy_h2d(1.758947)
F: 10933180----T: 10935785 	 St: c04b2000 Sz: 4096 	 Sm: 0 	 T: memcpy_h2d(1.758947)
F: 10935785----T: 10938390 	 St: c04c5000 Sz: 4096 	 Sm: 0 	 T: memcpy_h2d(1.758947)
F: 10938390----T: 10940995 	 St: c04c8000 Sz: 4096 	 Sm: 0 	 T: memcpy_h2d(1.758947)
F: 10940995----T: 10943600 	 St: c04b7000 Sz: 4096 	 Sm: 0 	 T: memcpy_h2d(1.758947)
F: 10943600----T: 10946205 	 St: c04c1000 Sz: 4096 	 Sm: 0 	 T: memcpy_h2d(1.758947)
F: 10946205----T: 10948810 	 St: c04be000 Sz: 4096 	 Sm: 0 	 T: memcpy_h2d(1.758947)
F: 10948810----T: 10951415 	 St: c04c6000 Sz: 4096 	 Sm: 0 	 T: memcpy_h2d(1.758947)
F: 10951415----T: 10954020 	 St: c04bb000 Sz: 4096 	 Sm: 0 	 T: memcpy_h2d(1.758947)
F: 10954020----T: 10956625 	 St: c04c3000 Sz: 4096 	 Sm: 0 	 T: memcpy_h2d(1.758947)
F: 10956625----T: 10959230 	 St: c04c4000 Sz: 4096 	 Sm: 0 	 T: memcpy_h2d(1.758947)
F: 10959230----T: 10961835 	 St: c04bd000 Sz: 4096 	 Sm: 0 	 T: memcpy_h2d(1.758947)
F: 10961835----T: 10964440 	 St: c04c2000 Sz: 4096 	 Sm: 0 	 T: memcpy_h2d(1.758947)
F: 10964440----T: 10967045 	 St: c04c9000 Sz: 4096 	 Sm: 0 	 T: memcpy_h2d(1.758947)
F: 10967045----T: 10969650 	 St: c04ca000 Sz: 4096 	 Sm: 0 	 T: memcpy_h2d(1.758947)
F: 10969650----T: 10972255 	 St: c04d2000 Sz: 4096 	 Sm: 0 	 T: memcpy_h2d(1.758947)
F: 10972255----T: 10974860 	 St: c04b9000 Sz: 4096 	 Sm: 0 	 T: memcpy_h2d(1.758947)
F: 10974860----T: 10977465 	 St: c04cf000 Sz: 4096 	 Sm: 0 	 T: memcpy_h2d(1.758947)
F: 10977465----T: 10980070 	 St: c04c0000 Sz: 4096 	 Sm: 0 	 T: memcpy_h2d(1.758947)
F: 10980070----T: 10982675 	 St: c04d1000 Sz: 4096 	 Sm: 0 	 T: memcpy_h2d(1.758947)
F: 10982675----T: 10985280 	 St: c04cd000 Sz: 4096 	 Sm: 0 	 T: memcpy_h2d(1.758947)
F: 10985280----T: 10987885 	 St: c04cb000 Sz: 4096 	 Sm: 0 	 T: memcpy_h2d(1.758947)
F: 10987885----T: 10990490 	 St: c04ce000 Sz: 4096 	 Sm: 0 	 T: memcpy_h2d(1.758947)
F: 10990490----T: 10993095 	 St: c04d0000 Sz: 4096 	 Sm: 0 	 T: memcpy_h2d(1.758947)
F: 10993095----T: 10995700 	 St: c04cc000 Sz: 4096 	 Sm: 0 	 T: memcpy_h2d(1.758947)
F: 10995700----T: 10998305 	 St: c04c7000 Sz: 4096 	 Sm: 0 	 T: memcpy_h2d(1.758947)
F: 10998305----T: 11000910 	 St: c04d3000 Sz: 4096 	 Sm: 0 	 T: memcpy_h2d(1.758947)
F: 11001988----T: 11004593 	 St: c04d4000 Sz: 4096 	 Sm: 0 	 T: memcpy_h2d(1.758947)
F: 11004593----T: 11007198 	 St: c04d6000 Sz: 4096 	 Sm: 0 	 T: memcpy_h2d(1.758947)
F: 11007198----T: 11009803 	 St: c04d8000 Sz: 4096 	 Sm: 0 	 T: memcpy_h2d(1.758947)
F: 11009803----T: 11012408 	 St: c04d7000 Sz: 4096 	 Sm: 0 	 T: memcpy_h2d(1.758947)
F: 11012408----T: 11015013 	 St: c04e1000 Sz: 4096 	 Sm: 0 	 T: memcpy_h2d(1.758947)
F: 11015013----T: 11017618 	 St: c04df000 Sz: 4096 	 Sm: 0 	 T: memcpy_h2d(1.758947)
F: 11017618----T: 11020223 	 St: c04db000 Sz: 4096 	 Sm: 0 	 T: memcpy_h2d(1.758947)
F: 11020223----T: 11022828 	 St: c04dd000 Sz: 4096 	 Sm: 0 	 T: memcpy_h2d(1.758947)
F: 11022828----T: 11025433 	 St: c04d9000 Sz: 4096 	 Sm: 0 	 T: memcpy_h2d(1.758947)
F: 11025433----T: 11028038 	 St: c04e0000 Sz: 4096 	 Sm: 0 	 T: memcpy_h2d(1.758947)
F: 11028038----T: 11030643 	 St: c04e4000 Sz: 4096 	 Sm: 0 	 T: memcpy_h2d(1.758947)
F: 11030643----T: 11033248 	 St: c04de000 Sz: 4096 	 Sm: 0 	 T: memcpy_h2d(1.758947)
F: 11033248----T: 11035853 	 St: c04e2000 Sz: 4096 	 Sm: 0 	 T: memcpy_h2d(1.758947)
F: 11035853----T: 11038458 	 St: c04da000 Sz: 4096 	 Sm: 0 	 T: memcpy_h2d(1.758947)
F: 11038458----T: 11041063 	 St: c04d5000 Sz: 4096 	 Sm: 0 	 T: memcpy_h2d(1.758947)
F: 11041063----T: 11043668 	 St: c04e9000 Sz: 4096 	 Sm: 0 	 T: memcpy_h2d(1.758947)
F: 11043668----T: 11046273 	 St: c04f2000 Sz: 4096 	 Sm: 0 	 T: memcpy_h2d(1.758947)
F: 11046273----T: 11048878 	 St: c04eb000 Sz: 4096 	 Sm: 0 	 T: memcpy_h2d(1.758947)
F: 11048878----T: 11051483 	 St: c04e7000 Sz: 4096 	 Sm: 0 	 T: memcpy_h2d(1.758947)
F: 11051483----T: 11054088 	 St: c04f4000 Sz: 4096 	 Sm: 0 	 T: memcpy_h2d(1.758947)
F: 11054088----T: 11056693 	 St: c04f5000 Sz: 4096 	 Sm: 0 	 T: memcpy_h2d(1.758947)
F: 11056693----T: 11059298 	 St: c04e5000 Sz: 4096 	 Sm: 0 	 T: memcpy_h2d(1.758947)
F: 11059298----T: 11061903 	 St: c04e3000 Sz: 4096 	 Sm: 0 	 T: memcpy_h2d(1.758947)
F: 11061903----T: 11064508 	 St: c04dc000 Sz: 4096 	 Sm: 0 	 T: memcpy_h2d(1.758947)
F: 11064508----T: 11067113 	 St: c04ee000 Sz: 4096 	 Sm: 0 	 T: memcpy_h2d(1.758947)
F: 11067113----T: 11069718 	 St: c04fe000 Sz: 4096 	 Sm: 0 	 T: memcpy_h2d(1.758947)
F: 11069718----T: 11072323 	 St: c04f7000 Sz: 4096 	 Sm: 0 	 T: memcpy_h2d(1.758947)
F: 11072323----T: 11074928 	 St: c04fd000 Sz: 4096 	 Sm: 0 	 T: memcpy_h2d(1.758947)
F: 11074928----T: 11077533 	 St: c04f0000 Sz: 4096 	 Sm: 0 	 T: memcpy_h2d(1.758947)
F: 11077533----T: 11080138 	 St: c04fb000 Sz: 4096 	 Sm: 0 	 T: memcpy_h2d(1.758947)
F: 11080138----T: 11082743 	 St: c0501000 Sz: 4096 	 Sm: 0 	 T: memcpy_h2d(1.758947)
F: 11082743----T: 11085348 	 St: c04fc000 Sz: 4096 	 Sm: 0 	 T: memcpy_h2d(1.758947)
F: 11085348----T: 11087953 	 St: c04f6000 Sz: 4096 	 Sm: 0 	 T: memcpy_h2d(1.758947)
F: 11087953----T: 11090558 	 St: c04f3000 Sz: 4096 	 Sm: 0 	 T: memcpy_h2d(1.758947)
F: 11090558----T: 11093163 	 St: c04ed000 Sz: 4096 	 Sm: 0 	 T: memcpy_h2d(1.758947)
F: 11093163----T: 11095768 	 St: c04e6000 Sz: 4096 	 Sm: 0 	 T: memcpy_h2d(1.758947)
F: 11095768----T: 11098373 	 St: c04e8000 Sz: 4096 	 Sm: 0 	 T: memcpy_h2d(1.758947)
F: 11098373----T: 11100978 	 St: c04ec000 Sz: 4096 	 Sm: 0 	 T: memcpy_h2d(1.758947)
F: 11100978----T: 11103583 	 St: c04ef000 Sz: 4096 	 Sm: 0 	 T: memcpy_h2d(1.758947)
F: 11103583----T: 11106188 	 St: c04f1000 Sz: 4096 	 Sm: 0 	 T: memcpy_h2d(1.758947)
F: 11106188----T: 11108793 	 St: c04f9000 Sz: 4096 	 Sm: 0 	 T: memcpy_h2d(1.758947)
F: 11108793----T: 11111398 	 St: c0500000 Sz: 4096 	 Sm: 0 	 T: memcpy_h2d(1.758947)
F: 11111398----T: 11114003 	 St: c04ea000 Sz: 4096 	 Sm: 0 	 T: memcpy_h2d(1.758947)
F: 11114003----T: 11116608 	 St: c04f8000 Sz: 4096 	 Sm: 0 	 T: memcpy_h2d(1.758947)
F: 11116608----T: 11119213 	 St: c04fa000 Sz: 4096 	 Sm: 0 	 T: memcpy_h2d(1.758947)
F: 11119213----T: 11121818 	 St: c0503000 Sz: 4096 	 Sm: 0 	 T: memcpy_h2d(1.758947)
F: 11121818----T: 11124423 	 St: c04ff000 Sz: 4096 	 Sm: 0 	 T: memcpy_h2d(1.758947)
F: 11124423----T: 11127028 	 St: c0505000 Sz: 4096 	 Sm: 0 	 T: memcpy_h2d(1.758947)
F: 11127028----T: 11129633 	 St: c0502000 Sz: 4096 	 Sm: 0 	 T: memcpy_h2d(1.758947)
F: 11129633----T: 11132238 	 St: c050a000 Sz: 4096 	 Sm: 0 	 T: memcpy_h2d(1.758947)
F: 11132238----T: 11134843 	 St: c0507000 Sz: 4096 	 Sm: 0 	 T: memcpy_h2d(1.758947)
F: 11134843----T: 11137448 	 St: c0509000 Sz: 4096 	 Sm: 0 	 T: memcpy_h2d(1.758947)
F: 11137448----T: 11140053 	 St: c0504000 Sz: 4096 	 Sm: 0 	 T: memcpy_h2d(1.758947)
F: 11140053----T: 11142658 	 St: c0508000 Sz: 4096 	 Sm: 0 	 T: memcpy_h2d(1.758947)
F: 11142658----T: 11145263 	 St: c0506000 Sz: 4096 	 Sm: 0 	 T: memcpy_h2d(1.758947)
F: 11145263----T: 11147868 	 St: c050b000 Sz: 4096 	 Sm: 0 	 T: memcpy_h2d(1.758947)
F: 11148937----T: 11151542 	 St: c050c000 Sz: 4096 	 Sm: 0 	 T: memcpy_h2d(1.758947)
F: 11151542----T: 11154147 	 St: c0510000 Sz: 4096 	 Sm: 0 	 T: memcpy_h2d(1.758947)
F: 11154147----T: 11156752 	 St: c050e000 Sz: 4096 	 Sm: 0 	 T: memcpy_h2d(1.758947)
F: 11156752----T: 11159357 	 St: c0517000 Sz: 4096 	 Sm: 0 	 T: memcpy_h2d(1.758947)
F: 11159357----T: 11161962 	 St: c050f000 Sz: 4096 	 Sm: 0 	 T: memcpy_h2d(1.758947)
F: 11161962----T: 11164567 	 St: c0513000 Sz: 4096 	 Sm: 0 	 T: memcpy_h2d(1.758947)
F: 11164567----T: 11167172 	 St: c0511000 Sz: 4096 	 Sm: 0 	 T: memcpy_h2d(1.758947)
F: 11167172----T: 11169777 	 St: c050d000 Sz: 4096 	 Sm: 0 	 T: memcpy_h2d(1.758947)
F: 11169777----T: 11172382 	 St: c0514000 Sz: 4096 	 Sm: 0 	 T: memcpy_h2d(1.758947)
F: 11172382----T: 11174987 	 St: c0515000 Sz: 4096 	 Sm: 0 	 T: memcpy_h2d(1.758947)
F: 11174987----T: 11177592 	 St: c0518000 Sz: 4096 	 Sm: 0 	 T: memcpy_h2d(1.758947)
F: 11177592----T: 11180197 	 St: c051a000 Sz: 4096 	 Sm: 0 	 T: memcpy_h2d(1.758947)
F: 11180197----T: 11182802 	 St: c0516000 Sz: 4096 	 Sm: 0 	 T: memcpy_h2d(1.758947)
F: 11182802----T: 11185407 	 St: c0512000 Sz: 4096 	 Sm: 0 	 T: memcpy_h2d(1.758947)
F: 11185407----T: 11188012 	 St: c0528000 Sz: 4096 	 Sm: 0 	 T: memcpy_h2d(1.758947)
F: 11188012----T: 11190617 	 St: c051b000 Sz: 4096 	 Sm: 0 	 T: memcpy_h2d(1.758947)
F: 11190617----T: 11193222 	 St: c0521000 Sz: 4096 	 Sm: 0 	 T: memcpy_h2d(1.758947)
F: 11193222----T: 11195827 	 St: c0522000 Sz: 4096 	 Sm: 0 	 T: memcpy_h2d(1.758947)
F: 11195827----T: 11198432 	 St: c051d000 Sz: 4096 	 Sm: 0 	 T: memcpy_h2d(1.758947)
F: 11198432----T: 11201037 	 St: c052a000 Sz: 4096 	 Sm: 0 	 T: memcpy_h2d(1.758947)
F: 11201037----T: 11203642 	 St: c051f000 Sz: 4096 	 Sm: 0 	 T: memcpy_h2d(1.758947)
F: 11203642----T: 11206247 	 St: c0524000 Sz: 4096 	 Sm: 0 	 T: memcpy_h2d(1.758947)
F: 11206247----T: 11208852 	 St: c0526000 Sz: 4096 	 Sm: 0 	 T: memcpy_h2d(1.758947)
F: 11208852----T: 11211457 	 St: c052f000 Sz: 4096 	 Sm: 0 	 T: memcpy_h2d(1.758947)
F: 11211457----T: 11214062 	 St: c051c000 Sz: 4096 	 Sm: 0 	 T: memcpy_h2d(1.758947)
F: 11214062----T: 11216667 	 St: c0523000 Sz: 4096 	 Sm: 0 	 T: memcpy_h2d(1.758947)
F: 11216667----T: 11219272 	 St: c052c000 Sz: 4096 	 Sm: 0 	 T: memcpy_h2d(1.758947)
F: 11219272----T: 11221877 	 St: c052d000 Sz: 4096 	 Sm: 0 	 T: memcpy_h2d(1.758947)
F: 11221877----T: 11224482 	 St: c0529000 Sz: 4096 	 Sm: 0 	 T: memcpy_h2d(1.758947)
F: 11224482----T: 11227087 	 St: c0534000 Sz: 4096 	 Sm: 0 	 T: memcpy_h2d(1.758947)
F: 11227087----T: 11229692 	 St: c052b000 Sz: 4096 	 Sm: 0 	 T: memcpy_h2d(1.758947)
F: 11229692----T: 11232297 	 St: c0537000 Sz: 4096 	 Sm: 0 	 T: memcpy_h2d(1.758947)
F: 11232297----T: 11234902 	 St: c0539000 Sz: 4096 	 Sm: 0 	 T: memcpy_h2d(1.758947)
F: 11234902----T: 11237507 	 St: c0536000 Sz: 4096 	 Sm: 0 	 T: memcpy_h2d(1.758947)
F: 11237507----T: 11240112 	 St: c0519000 Sz: 4096 	 Sm: 0 	 T: memcpy_h2d(1.758947)
F: 11240112----T: 11242717 	 St: c052e000 Sz: 4096 	 Sm: 0 	 T: memcpy_h2d(1.758947)
F: 11242717----T: 11245322 	 St: c0525000 Sz: 4096 	 Sm: 0 	 T: memcpy_h2d(1.758947)
F: 11245322----T: 11247927 	 St: c053d000 Sz: 4096 	 Sm: 0 	 T: memcpy_h2d(1.758947)
F: 11247927----T: 11250532 	 St: c0538000 Sz: 4096 	 Sm: 0 	 T: memcpy_h2d(1.758947)
F: 11250532----T: 11253137 	 St: c053b000 Sz: 4096 	 Sm: 0 	 T: memcpy_h2d(1.758947)
F: 11253137----T: 11255742 	 St: c0530000 Sz: 4096 	 Sm: 0 	 T: memcpy_h2d(1.758947)
F: 11255742----T: 11258347 	 St: c0527000 Sz: 4096 	 Sm: 0 	 T: memcpy_h2d(1.758947)
F: 11258347----T: 11260952 	 St: c053f000 Sz: 4096 	 Sm: 0 	 T: memcpy_h2d(1.758947)
F: 11260952----T: 11263557 	 St: c051e000 Sz: 4096 	 Sm: 0 	 T: memcpy_h2d(1.758947)
F: 11263557----T: 11266162 	 St: c0531000 Sz: 4096 	 Sm: 0 	 T: memcpy_h2d(1.758947)
F: 11266162----T: 11268767 	 St: c0542000 Sz: 4096 	 Sm: 0 	 T: memcpy_h2d(1.758947)
F: 11268767----T: 11271372 	 St: c0520000 Sz: 4096 	 Sm: 0 	 T: memcpy_h2d(1.758947)
F: 11271372----T: 11273977 	 St: c0532000 Sz: 4096 	 Sm: 0 	 T: memcpy_h2d(1.758947)
F: 11273977----T: 11276582 	 St: c0533000 Sz: 4096 	 Sm: 0 	 T: memcpy_h2d(1.758947)
F: 11276582----T: 11279187 	 St: c0540000 Sz: 4096 	 Sm: 0 	 T: memcpy_h2d(1.758947)
F: 11279187----T: 11281792 	 St: c053e000 Sz: 4096 	 Sm: 0 	 T: memcpy_h2d(1.758947)
F: 11281792----T: 11284397 	 St: c053a000 Sz: 4096 	 Sm: 0 	 T: memcpy_h2d(1.758947)
F: 11284397----T: 11287002 	 St: c0535000 Sz: 4096 	 Sm: 0 	 T: memcpy_h2d(1.758947)
F: 11287002----T: 11289607 	 St: c053c000 Sz: 4096 	 Sm: 0 	 T: memcpy_h2d(1.758947)
F: 11289607----T: 11292212 	 St: c0543000 Sz: 4096 	 Sm: 0 	 T: memcpy_h2d(1.758947)
F: 11292212----T: 11294817 	 St: c0541000 Sz: 4096 	 Sm: 0 	 T: memcpy_h2d(1.758947)
F: 11295886----T: 11298491 	 St: c0544000 Sz: 4096 	 Sm: 0 	 T: memcpy_h2d(1.758947)
F: 11298491----T: 11301096 	 St: c0546000 Sz: 4096 	 Sm: 0 	 T: memcpy_h2d(1.758947)
F: 11301096----T: 11303701 	 St: c054b000 Sz: 4096 	 Sm: 0 	 T: memcpy_h2d(1.758947)
F: 11303701----T: 11306306 	 St: c0549000 Sz: 4096 	 Sm: 0 	 T: memcpy_h2d(1.758947)
F: 11306306----T: 11308911 	 St: c0545000 Sz: 4096 	 Sm: 0 	 T: memcpy_h2d(1.758947)
F: 11308911----T: 11311516 	 St: c0547000 Sz: 4096 	 Sm: 0 	 T: memcpy_h2d(1.758947)
F: 11311516----T: 11314121 	 St: c054a000 Sz: 4096 	 Sm: 0 	 T: memcpy_h2d(1.758947)
F: 11314121----T: 11316726 	 St: c054c000 Sz: 4096 	 Sm: 0 	 T: memcpy_h2d(1.758947)
F: 11316726----T: 11319331 	 St: c054e000 Sz: 4096 	 Sm: 0 	 T: memcpy_h2d(1.758947)
F: 11319331----T: 11321936 	 St: c0550000 Sz: 4096 	 Sm: 0 	 T: memcpy_h2d(1.758947)
F: 11321936----T: 11324541 	 St: c0555000 Sz: 4096 	 Sm: 0 	 T: memcpy_h2d(1.758947)
F: 11324541----T: 11327146 	 St: c0559000 Sz: 4096 	 Sm: 0 	 T: memcpy_h2d(1.758947)
F: 11327146----T: 11329751 	 St: c0560000 Sz: 4096 	 Sm: 0 	 T: memcpy_h2d(1.758947)
F: 11329751----T: 11332356 	 St: c0562000 Sz: 4096 	 Sm: 0 	 T: memcpy_h2d(1.758947)
F: 11332356----T: 11334961 	 St: c0557000 Sz: 4096 	 Sm: 0 	 T: memcpy_h2d(1.758947)
F: 11334961----T: 11337566 	 St: c0565000 Sz: 4096 	 Sm: 0 	 T: memcpy_h2d(1.758947)
F: 11337566----T: 11340171 	 St: c055e000 Sz: 4096 	 Sm: 0 	 T: memcpy_h2d(1.758947)
F: 11340171----T: 11342776 	 St: c055b000 Sz: 4096 	 Sm: 0 	 T: memcpy_h2d(1.758947)
F: 11342776----T: 11345381 	 St: c055c000 Sz: 4096 	 Sm: 0 	 T: memcpy_h2d(1.758947)
F: 11345381----T: 11347986 	 St: c0548000 Sz: 4096 	 Sm: 0 	 T: memcpy_h2d(1.758947)
F: 11347986----T: 11350591 	 St: c0567000 Sz: 4096 	 Sm: 0 	 T: memcpy_h2d(1.758947)
F: 11350591----T: 11353196 	 St: c055f000 Sz: 4096 	 Sm: 0 	 T: memcpy_h2d(1.758947)
F: 11353196----T: 11355801 	 St: c055a000 Sz: 4096 	 Sm: 0 	 T: memcpy_h2d(1.758947)
F: 11355801----T: 11358406 	 St: c0563000 Sz: 4096 	 Sm: 0 	 T: memcpy_h2d(1.758947)
F: 11358406----T: 11361011 	 St: c056a000 Sz: 4096 	 Sm: 0 	 T: memcpy_h2d(1.758947)
F: 11361011----T: 11363616 	 St: c056c000 Sz: 4096 	 Sm: 0 	 T: memcpy_h2d(1.758947)
F: 11363616----T: 11366221 	 St: c0553000 Sz: 4096 	 Sm: 0 	 T: memcpy_h2d(1.758947)
F: 11366221----T: 11368826 	 St: c0552000 Sz: 4096 	 Sm: 0 	 T: memcpy_h2d(1.758947)
F: 11368826----T: 11371431 	 St: c0561000 Sz: 4096 	 Sm: 0 	 T: memcpy_h2d(1.758947)
F: 11371431----T: 11374036 	 St: c0571000 Sz: 4096 	 Sm: 0 	 T: memcpy_h2d(1.758947)
F: 11374036----T: 11376641 	 St: c0551000 Sz: 4096 	 Sm: 0 	 T: memcpy_h2d(1.758947)
F: 11376641----T: 11379246 	 St: c054d000 Sz: 4096 	 Sm: 0 	 T: memcpy_h2d(1.758947)
F: 11379246----T: 11381851 	 St: c054f000 Sz: 4096 	 Sm: 0 	 T: memcpy_h2d(1.758947)
F: 11381851----T: 11384456 	 St: c0568000 Sz: 4096 	 Sm: 0 	 T: memcpy_h2d(1.758947)
F: 11384456----T: 11387061 	 St: c056f000 Sz: 4096 	 Sm: 0 	 T: memcpy_h2d(1.758947)
F: 11387061----T: 11389666 	 St: c0554000 Sz: 4096 	 Sm: 0 	 T: memcpy_h2d(1.758947)
F: 11389666----T: 11392271 	 St: c0558000 Sz: 4096 	 Sm: 0 	 T: memcpy_h2d(1.758947)
F: 11392271----T: 11394876 	 St: c0566000 Sz: 4096 	 Sm: 0 	 T: memcpy_h2d(1.758947)
F: 11394876----T: 11397481 	 St: c0573000 Sz: 4096 	 Sm: 0 	 T: memcpy_h2d(1.758947)
F: 11397481----T: 11400086 	 St: c056e000 Sz: 4096 	 Sm: 0 	 T: memcpy_h2d(1.758947)
F: 11400086----T: 11402691 	 St: c0556000 Sz: 4096 	 Sm: 0 	 T: memcpy_h2d(1.758947)
F: 11402691----T: 11405296 	 St: c0564000 Sz: 4096 	 Sm: 0 	 T: memcpy_h2d(1.758947)
F: 11405296----T: 11407901 	 St: c055d000 Sz: 4096 	 Sm: 0 	 T: memcpy_h2d(1.758947)
F: 11407901----T: 11410506 	 St: c0570000 Sz: 4096 	 Sm: 0 	 T: memcpy_h2d(1.758947)
F: 11410506----T: 11413111 	 St: c0577000 Sz: 4096 	 Sm: 0 	 T: memcpy_h2d(1.758947)
F: 11413111----T: 11415716 	 St: c0576000 Sz: 4096 	 Sm: 0 	 T: memcpy_h2d(1.758947)
F: 11415716----T: 11418321 	 St: c0569000 Sz: 4096 	 Sm: 0 	 T: memcpy_h2d(1.758947)
F: 11418321----T: 11420926 	 St: c056d000 Sz: 4096 	 Sm: 0 	 T: memcpy_h2d(1.758947)
F: 11420926----T: 11423531 	 St: c056b000 Sz: 4096 	 Sm: 0 	 T: memcpy_h2d(1.758947)
F: 11423531----T: 11426136 	 St: c0578000 Sz: 4096 	 Sm: 0 	 T: memcpy_h2d(1.758947)
F: 11426136----T: 11428741 	 St: c0572000 Sz: 4096 	 Sm: 0 	 T: memcpy_h2d(1.758947)
F: 11428741----T: 11431346 	 St: c0575000 Sz: 4096 	 Sm: 0 	 T: memcpy_h2d(1.758947)
F: 11431346----T: 11433951 	 St: c057a000 Sz: 4096 	 Sm: 0 	 T: memcpy_h2d(1.758947)
F: 11433951----T: 11436556 	 St: c0574000 Sz: 4096 	 Sm: 0 	 T: memcpy_h2d(1.758947)
F: 11436556----T: 11439161 	 St: c057b000 Sz: 4096 	 Sm: 0 	 T: memcpy_h2d(1.758947)
F: 11439161----T: 11441766 	 St: c0579000 Sz: 4096 	 Sm: 0 	 T: memcpy_h2d(1.758947)
F: 11442478----T: 11445083 	 St: c057c000 Sz: 4096 	 Sm: 0 	 T: memcpy_h2d(1.758947)
F: 11445083----T: 11447688 	 St: c057f000 Sz: 4096 	 Sm: 0 	 T: memcpy_h2d(1.758947)
F: 11447688----T: 11450293 	 St: c0583000 Sz: 4096 	 Sm: 0 	 T: memcpy_h2d(1.758947)
F: 11450293----T: 11452898 	 St: c057d000 Sz: 4096 	 Sm: 0 	 T: memcpy_h2d(1.758947)
F: 11452898----T: 11455503 	 St: c0581000 Sz: 4096 	 Sm: 0 	 T: memcpy_h2d(1.758947)
F: 11455503----T: 11458108 	 St: c0582000 Sz: 4096 	 Sm: 0 	 T: memcpy_h2d(1.758947)
F: 11458108----T: 11460713 	 St: c0584000 Sz: 4096 	 Sm: 0 	 T: memcpy_h2d(1.758947)
F: 11460713----T: 11463318 	 St: c0580000 Sz: 4096 	 Sm: 0 	 T: memcpy_h2d(1.758947)
F: 11463318----T: 11465923 	 St: c0588000 Sz: 4096 	 Sm: 0 	 T: memcpy_h2d(1.758947)
F: 11465923----T: 11468528 	 St: c057e000 Sz: 4096 	 Sm: 0 	 T: memcpy_h2d(1.758947)
F: 11468528----T: 11471133 	 St: c0586000 Sz: 4096 	 Sm: 0 	 T: memcpy_h2d(1.758947)
F: 11471133----T: 11473738 	 St: c0589000 Sz: 4096 	 Sm: 0 	 T: memcpy_h2d(1.758947)
F: 11473738----T: 11476343 	 St: c058d000 Sz: 4096 	 Sm: 0 	 T: memcpy_h2d(1.758947)
F: 11476343----T: 11478948 	 St: c058b000 Sz: 4096 	 Sm: 0 	 T: memcpy_h2d(1.758947)
F: 11478948----T: 11481553 	 St: c058c000 Sz: 4096 	 Sm: 0 	 T: memcpy_h2d(1.758947)
F: 11481553----T: 11484158 	 St: c0587000 Sz: 4096 	 Sm: 0 	 T: memcpy_h2d(1.758947)
F: 11484158----T: 11486763 	 St: c0585000 Sz: 4096 	 Sm: 0 	 T: memcpy_h2d(1.758947)
F: 11486763----T: 11489368 	 St: c058e000 Sz: 4096 	 Sm: 0 	 T: memcpy_h2d(1.758947)
F: 11489368----T: 11491973 	 St: c058a000 Sz: 4096 	 Sm: 0 	 T: memcpy_h2d(1.758947)
F: 11491973----T: 11494578 	 St: c058f000 Sz: 4096 	 Sm: 0 	 T: memcpy_h2d(1.758947)
F: 11717132----T: 11805919 	 	 	 Kl: 3 	 Sm: 0 	 T: kernel_launch(59.950710)
F: 11802415----T: 11805020 	 St: c0b8f000 Sz: 4096 	 Sm: 0 	 T: memcpy_h2d(1.758947)
F: 12028069----T: 12083283 	 	 	 Kl: 4 	 Sm: 0 	 T: kernel_launch(37.281567)
F: 12305433----T: 12369734 	 	 	 Kl: 5 	 Sm: 0 	 T: kernel_launch(43.417286)
F: 12591884----T: 12678049 	 	 	 Kl: 6 	 Sm: 0 	 T: kernel_launch(58.180283)
F: 12900199----T: 12955242 	 	 	 Kl: 7 	 Sm: 0 	 T: kernel_launch(37.166103)
F: 13177392----T: 13241589 	 	 	 Kl: 8 	 Sm: 0 	 T: kernel_launch(43.347061)
F: 13463739----T: 13549785 	 	 	 Kl: 9 	 Sm: 0 	 T: kernel_launch(58.099934)
F: 13771935----T: 13826907 	 	 	 Kl: 10 	 Sm: 0 	 T: kernel_launch(37.118164)
F: 14049057----T: 14113595 	 	 	 Kl: 11 	 Sm: 0 	 T: kernel_launch(43.577312)
F: 14335745----T: 14422148 	 	 	 Kl: 12 	 Sm: 0 	 T: kernel_launch(58.340984)
F: 14644298----T: 14699193 	 	 	 Kl: 13 	 Sm: 0 	 T: kernel_launch(37.066170)
F: 14921343----T: 14985635 	 	 	 Kl: 14 	 Sm: 0 	 T: kernel_launch(43.411209)
F: 15207785----T: 15293760 	 	 	 Kl: 15 	 Sm: 0 	 T: kernel_launch(58.051991)
Tot_prefetch_time: 0(cycle), 0.000000(us)
Tot_kernel_exec_time: 11961510(cycle), 8076.644043(us)
Tot_kernel_exec_time_and_fault_time: 293469990(cycle), 198156.640625(us)
Tot_memcpy_h2d_time: 11003520(cycle), 7429.790527(us)
Tot_memcpy_d2h_time: 0(cycle), 0.000000(us)
Tot_memcpy_time: 11003520(cycle), 7429.790527(us)
Tot_devicesync_time: 0(cycle), 0.000000(us)
Tot_writeback_time: 0(cycle), 0.000000(us)
Tot_dma_time: 0(cycle), 0.000000(us)
Tot_memcpy_d2h_sync_wb_time: 0(cycle), 0.000000(us)
GPGPU-Sim: *** exit detected ***
