

        *** GPGPU-Sim Simulator Version 3.2.2  [build gpgpu-sim_git-commit-1c1adf09f9d1bccf70ff97255c2b46b40ff0e800_modified_0] ***


GPGPU-Sim PTX: simulation mode 0 (can change with PTX_SIM_MODE_FUNC environment variable:
               1=functional simulation only, 0=detailed performance simulator)
GPGPU-Sim: Configuration options:

-network_mode                           1 # Interconnection network mode
-inter_config_file   config_fermi_islip.icnt # Interconnection network config file
-gpgpu_ptx_use_cuobjdump                    1 # Use cuobjdump to extract ptx and sass from binaries
-gpgpu_experimental_lib_support                    0 # Try to extract code from cuda libraries [Broken because of unknown cudaGetExportTable]
-gpgpu_ptx_convert_to_ptxplus                    0 # Convert SASS (native ISA) to ptxplus and run ptxplus
-gpgpu_ptx_force_max_capability                   20 # Force maximum compute capability
-gpgpu_ptx_inst_debug_to_file                    0 # Dump executed instructions' debug information to file
-gpgpu_ptx_inst_debug_file       inst_debug.txt # Executed instructions' debug output file
-gpgpu_ptx_inst_debug_thread_uid                    1 # Thread UID for executed instructions' debug output
-gpgpu_simd_model                       1 # 1 = post-dominator
-gpgpu_shader_core_pipeline              2048:32 # shader core pipeline config, i.e., {<nthread>:<warpsize>}
-gpgpu_tex_cache:l1  16:128:24,L:R:m:N:L,F:128:4,128:2 # per-shader L1 texture cache  (READ-ONLY) config  {<nsets>:<bsize>:<assoc>,<rep>:<wr>:<alloc>:<wr_alloc>,<mshr>:<N>:<merge>,<mq>:<rf>}
-gpgpu_const_cache:l1 128:64:2,L:R:f:N:L,A:2:64,4 # per-shader L1 constant memory cache  (READ-ONLY) config  {<nsets>:<bsize>:<assoc>,<rep>:<wr>:<alloc>:<wr_alloc>,<mshr>:<N>:<merge>,<mq>} 
-gpgpu_cache:il1     8:128:4,L:R:f:N:L,A:2:48,4 # shader L1 instruction cache config  {<nsets>:<bsize>:<assoc>,<rep>:<wr>:<alloc>:<wr_alloc>,<mshr>:<N>:<merge>,<mq>} 
-gpgpu_cache:dl1     64:128:6,L:L:m:N:H,A:128:8,8 # per-shader L1 data cache config  {<nsets>:<bsize>:<assoc>,<rep>:<wr>:<alloc>:<wr_alloc>,<mshr>:<N>:<merge>,<mq> | none}
-gpgpu_cache:dl1PrefL1                 none # per-shader L1 data cache config  {<nsets>:<bsize>:<assoc>,<rep>:<wr>:<alloc>:<wr_alloc>,<mshr>:<N>:<merge>,<mq> | none}
-gpgpu_cache:dl1PrefShared                 none # per-shader L1 data cache config  {<nsets>:<bsize>:<assoc>,<rep>:<wr>:<alloc>:<wr_alloc>,<mshr>:<N>:<merge>,<mq> | none}
-gmem_skip_L1D                          1 # global memory access skip L1D cache (implements -Xptxas -dlcm=cg, default=no skip)
-gpgpu_perfect_mem                      0 # enable perfect memory mode (no cache miss)
-n_regfile_gating_group                    4 # group of lanes that should be read/written together)
-gpgpu_clock_gated_reg_file                    0 # enable clock gated reg file for power calculations
-gpgpu_clock_gated_lanes                    0 # enable clock gated lanes for power calculations
-gpgpu_shader_registers                65536 # Number of registers per shader core. Limits number of concurrent CTAs. (default 8192)
-gpgpu_shader_cta                      32 # Maximum number of concurrent CTAs in shader (default 8)
-gpgpu_num_cta_barriers                   16 # Maximum number of named barriers per CTA (default 16)
-gpgpu_n_clusters                      28 # number of processing clusters
-gpgpu_n_cores_per_cluster                    1 # number of simd cores per cluster
-gpgpu_n_cluster_ejection_buffer_size                    8 # number of packets in ejection buffer
-gpgpu_n_ldst_response_buffer_size                    2 # number of response packets in ld/st unit ejection buffer
-gpgpu_shmem_size                   16384 # Size of shared memory per shader core (default 16kB)
-gpgpu_shmem_size                   98304 # Size of shared memory per shader core (default 16kB)
-gpgpu_shmem_size_PrefL1                16384 # Size of shared memory per shader core (default 16kB)
-gpgpu_shmem_size_PrefShared                16384 # Size of shared memory per shader core (default 16kB)
-gpgpu_shmem_num_banks                   32 # Number of banks in the shared memory in each shader core (default 16)
-gpgpu_shmem_limited_broadcast                    0 # Limit shared memory to do one broadcast per cycle (default on)
-gpgpu_shmem_warp_parts                    1 # Number of portions a warp is divided into for shared memory bank conflict check 
-gpgpu_warpdistro_shader                   -1 # Specify which shader core to collect the warp size distribution from
-gpgpu_warp_issue_shader                    0 # Specify which shader core to collect the warp issue distribution from
-gpgpu_local_mem_map                    1 # Mapping from local memory space address to simulated GPU physical address space (default = enabled)
-gpgpu_num_reg_banks                   32 # Number of register banks (default = 8)
-gpgpu_reg_bank_use_warp_id                    0 # Use warp ID in mapping registers to banks (default = off)
-gpgpu_operand_collector_num_units_sp                   20 # number of collector units (default = 4)
-gpgpu_operand_collector_num_units_sfu                    4 # number of collector units (default = 4)
-gpgpu_operand_collector_num_units_mem                    8 # number of collector units (default = 2)
-gpgpu_operand_collector_num_units_gen                    0 # number of collector units (default = 0)
-gpgpu_operand_collector_num_in_ports_sp                    4 # number of collector unit in ports (default = 1)
-gpgpu_operand_collector_num_in_ports_sfu                    1 # number of collector unit in ports (default = 1)
-gpgpu_operand_collector_num_in_ports_mem                    1 # number of collector unit in ports (default = 1)
-gpgpu_operand_collector_num_in_ports_gen                    0 # number of collector unit in ports (default = 0)
-gpgpu_operand_collector_num_out_ports_sp                    4 # number of collector unit in ports (default = 1)
-gpgpu_operand_collector_num_out_ports_sfu                    1 # number of collector unit in ports (default = 1)
-gpgpu_operand_collector_num_out_ports_mem                    1 # number of collector unit in ports (default = 1)
-gpgpu_operand_collector_num_out_ports_gen                    0 # number of collector unit in ports (default = 0)
-gpgpu_coalesce_arch                   13 # Coalescing arch (default = 13, anything else is off for now)
-gpgpu_num_sched_per_core                    2 # Number of warp schedulers per core
-gpgpu_max_insn_issue_per_warp                    2 # Max number of instructions that can be issued per warp in one cycle by scheduler
-gpgpu_simt_core_sim_order                    1 # Select the simulation order of cores in a cluster (0=Fix, 1=Round-Robin)
-gpgpu_pipeline_widths        4,1,1,4,1,1,6 # Pipeline widths ID_OC_SP,ID_OC_SFU,ID_OC_MEM,OC_EX_SP,OC_EX_SFU,OC_EX_MEM,EX_WB
-gpgpu_num_sp_units                     4 # Number of SP units (default=1)
-gpgpu_num_sfu_units                    1 # Number of SF units (default=1)
-gpgpu_num_mem_units                    1 # Number if ldst units (default=1) WARNING: not hooked up to anything
-gpgpu_scheduler                      gto # Scheduler configuration: < lrr | gto | two_level_active > If two_level_active:<num_active_warps>:<inner_prioritization>:<outer_prioritization>For complete list of prioritization values see shader.h enum scheduler_prioritization_typeDefault: gto
-gpgpu_concurrent_kernel_sm                    0 # Support concurrent kernels on a SM (default = disabled)
-tlb_size                            4096 # Number of tlb entries per SM.
-gpgpu_dram_scheduler                    1 # 0 = fifo, 1 = FR-FCFS (defaul)
-gpgpu_dram_partition_queues              8:8:8:8 # i2$:$2d:d2$:$2i
-l2_ideal                               0 # Use a ideal L2 cache that always hit
-gpgpu_cache:dl2     64:128:16,L:B:m:W:L,A:1024:1024,4:0,32 # unified banked L2 data cache config  {<nsets>:<bsize>:<assoc>,<rep>:<wr>:<alloc>:<wr_alloc>,<mshr>:<N>:<merge>,<mq>}
-gpgpu_cache:dl2_texture_only                    0 # L2 cache used for texture only
-gpgpu_n_mem                           11 # number of memory modules (e.g. memory controllers) in gpu
-gpgpu_n_sub_partition_per_mchannel                    2 # number of memory subpartition in each memory module
-gpgpu_n_mem_per_ctrlr                    1 # number of memory chips per memory controller
-gpgpu_memlatency_stat                   14 # track and display latency statistics 0x2 enables MC, 0x4 enables queue logs
-gpgpu_frfcfs_dram_sched_queue_size                   64 # 0 = unlimited (default); # entries per chip
-gpgpu_dram_return_queue_size                  116 # 0 = unlimited (default); # entries per chip
-gpgpu_dram_buswidth                    4 # default = 4 bytes (8 bytes per cycle at DDR)
-gpgpu_dram_burst_length                    8 # Burst length of each DRAM request (default = 4 data bus cycle)
-dram_data_command_freq_ratio                    4 # Frequency ratio between DRAM data bus and command bus (default = 2 times, i.e. DDR)
-gpgpu_dram_timing_opt nbk=16:CCD=2:RRD=6:RCD=12:RAS=28:RP=12:RC=40: CL=12:WL=4:CDLR=5:WR=12:nbkgrp=1:CCDL=0:RTPL=0 # DRAM timing parameters = {nbk:tCCD:tRRD:tRCD:tRAS:tRP:tRC:CL:WL:tCDLR:tWR:nbkgrp:tCCDL:tRTPL}
-rop_latency                          120 # ROP queue latency (default 85)
-dram_latency                         100 # DRAM latency (default 30)
-gpgpu_mem_addr_mapping dramid@8;00000000.00000000.00000000.00000000.0000RRRR.RRRRRRRR.RBBBCCCC.BCCSSSSS # mapping memory address to dram model {dramid@<start bit>;<memory address map>}
-gpgpu_mem_addr_test                    0 # run sweep test to check address mapping for aliased address
-gpgpu_mem_address_mask                    1 # 0 = old addressing mask, 1 = new addressing mask, 2 = new add. mask + flipped bank sel and chip sel bits
-gpuwattch_xml_file  gpuwattch_geforcegtx1080ti.xml # GPUWattch XML file
-power_simulation_enabled                    1 # Turn on power simulator (1=On, 0=Off)
-power_per_cycle_dump                    0 # Dump detailed power output each cycle
-power_trace_enabled                    0 # produce a file for the power trace (1=On, 0=Off)
-power_trace_zlevel                     6 # Compression level of the power trace output log (0=no comp, 9=highest)
-steady_power_levels_enabled                    0 # produce a file for the steady power levels (1=On, 0=Off)
-steady_state_definition                  8:4 # allowed deviation:number of samples
-gpgpu_max_cycle                        0 # terminates gpu simulation early (0 = no limit)
-gpgpu_max_insn                         0 # terminates gpu simulation early (0 = no limit)
-gpgpu_max_cta                          0 # terminates gpu simulation early (0 = no limit)
-gpgpu_runtime_stat                   500 # display runtime statistics such as dram utilization {<freq>:<flag>}
-liveness_message_freq                    1 # Minimum number of seconds between simulation liveness messages (0 = always print)
-gpgpu_flush_l1_cache                    0 # Flush L1 cache at the end of each kernel call
-gpgpu_flush_l2_cache                    0 # Flush L2 cache at the end of each kernel call
-gpgpu_deadlock_detect                    0 # Stop the simulation at deadlock (1=on (default), 0=off)
-gpgpu_ptx_instruction_classification                    0 # if enabled will classify ptx instruction types per kernel (Max 255 kernels now)
-gpgpu_ptx_sim_mode                     0 # Select between Performance (default) or Functional simulation (1)
-gpgpu_clock_domains 1481.0:2962.0:1481.0:2750.0 # Clock Domain Frequencies in MhZ {<Core Clock>:<ICNT Clock>:<L2 Clock>:<DRAM Clock>}
-gpgpu_max_concurrent_kernel                    8 # maximum kernels that can run concurrently on GPU
-gpgpu_cflog_interval                    0 # Interval between each snapshot in control flow logger
-visualizer_enabled                     0 # Turn on visualizer output (1=On, 0=Off)
-visualizer_outputfile                 NULL # Specifies the output log file for visualizer
-visualizer_zlevel                      6 # Compression level of the visualizer output log (0=no comp, 9=highest)
-trace_enabled                          0 # Turn on traces
-trace_components                    none # comma seperated list of traces to enable. Complete list found in trace_streams.tup. Default none
-trace_sampling_core                    0 # The core which is printed using CORE_DPRINTF. Default 0
-trace_sampling_memory_partition                   -1 # The memory partition which is printed using MEMPART_DPRINTF. Default -1 (i.e. all)
-gddr_size                            1GB # Size of GDDR in MB/GB.(GLOBAL_HEAP_START, GLOBAL_HEAP_START + gddr_size) would be used for unmanged memory, (GLOBAL_HEAP_START + gddr_size, GLOBAL_HEAP_START + gddr_size*2) would be used for managed memory. 
-page_table_walk_latency                  100 # Average page table walk latency (in core cycle).
-eviction_policy                        0 # Select page eviction policy
-invalidate_clean                       0 # Should directly invalidate clean pages
-reserve_accessed_page_percent                    0 # Percentage of accessed pages reserved from eviction in hope that they will be accessed in next iteration.
-percentage_of_free_page_buffer                    0 # Percentage of free page buffer to trigger the page eviction.
-page_size                            4KB # GDDR page size, only 4KB/2MB avaliable.
-pcie_bandwidth                  16.0GB/s # PCI-e bandwidth per direction, in GB/s.
-enable_dma                             0 # Enable direct access to CPU memory
-multiply_dma_penalty                    2 # Oversubscription Multiplicative Penalty Factor for Adaptive DMA
-migrate_threshold                      8 # Access counter threshold for migrating the page from cpu to gpu
-sim_prof_enable                        1 # Enable gpgpu-sim profiler
-hardware_prefetch                      0 # Select gpgpu-sim hardware prefetcher
-hwprefetch_oversub                     1 # Select gpgpu-sim hardware prefetcher under over-subscription
-page_fault_latency                 66645 # Average fault latency (in core cycle).
-enable_accurate_simulation                    0 # Enable page fault functional simulation.
-enable_ptx_file_line_stats                    1 # Turn on PTX source line statistic profiling. (1 = On)
-ptx_line_stats_filename gpgpu_inst_stats.txt # Output file for PTX source line statistics.
-gpgpu_kernel_launch_latency               222150 # Kernel launch latency in cycles. Default: 0
-gpgpu_cdp_enabled                      0 # Turn on CDP
-save_embedded_ptx                      0 # saves ptx files embedded in binary as <n>.ptx
-keep                                   0 # keep intermediate files created by GPGPU-Sim when interfacing with external programs
-gpgpu_ptx_save_converted_ptxplus                    0 # Saved converted ptxplus to a file
-ptx_opcode_latency_int         4,13,4,5,145 # Opcode latencies for integers <ADD,MAX,MUL,MAD,DIV>Default 1,1,19,25,145
-ptx_opcode_latency_fp          4,13,4,5,39 # Opcode latencies for single precision floating points <ADD,MAX,MUL,MAD,DIV>Default 1,1,1,1,30
-ptx_opcode_latency_dp         8,19,8,8,330 # Opcode latencies for double precision floating points <ADD,MAX,MUL,MAD,DIV>Default 8,8,8,8,335
-ptx_opcode_initiation_int            1,2,2,2,8 # Opcode initiation intervals for integers <ADD,MAX,MUL,MAD,DIV>Default 1,1,4,4,32
-ptx_opcode_initiation_fp            1,2,1,1,4 # Opcode initiation intervals for single precision floating points <ADD,MAX,MUL,MAD,DIV>Default 1,1,1,1,5
-ptx_opcode_initiation_dp          1,2,1,1,130 # Opcode initiation intervals for double precision floating points <ADD,MAX,MUL,MAD,DIV>Default 8,8,8,8,130
-cdp_latency         7200,8000,100,12000,1600 # CDP API latency <cudaStreamCreateWithFlags, cudaGetParameterBufferV2_init_perWarp, cudaGetParameterBufferV2_perKernel, cudaLaunchDeviceV2_init_perWarp, cudaLaunchDevicV2_perKernel>Default 7200,8000,100,12000,1600
DRAM Timing Options:
nbk                                    16 # number of banks
CCD                                     2 # column to column delay
RRD                                     6 # minimal delay between activation of rows in different banks
RCD                                    12 # row to column delay
RAS                                    28 # time needed to activate row
RP                                     12 # time needed to precharge (deactivate) row
RC                                     40 # row cycle time
CDLR                                    5 # switching from write to read (changes tWTR)
WR                                     12 # last data-in to row precharge
CL                                     12 # CAS latency
WL                                      4 # Write latency
nbkgrp                                  1 # number of bank groups
CCDL                                    0 # column to column delay between accesses to different bank groups
RTPL                                    0 # read to precharge delay between accesses to different bank groups
Total number of memory sub partition = 22
addr_dec_mask[CHIP]  = 0000000000000000 	high:64 low:0
addr_dec_mask[BK]    = 0000000000007080 	high:15 low:7
addr_dec_mask[ROW]   = 000000000fff8000 	high:28 low:15
addr_dec_mask[COL]   = 0000000000000f7f 	high:12 low:0
addr_dec_mask[BURST] = 000000000000001f 	high:5 low:0
sub_partition_id_mask = 0000000000000080
GPGPU-Sim uArch: clock freqs: 1481000000.000000:2962000000.000000:1481000000.000000:2750000000.000000
GPGPU-Sim uArch: clock periods: 0.00000000067521944632:0.00000000033760972316:0.00000000067521944632:0.00000000036363636364
*** Initializing Memory Statistics ***
GPGPU-Sim uArch: interconnect node map (shaderID+MemID to icntID)
GPGPU-Sim uArch: Memory nodes ID start from index: 28
GPGPU-Sim uArch:    0   1   2   3   4   5   6
GPGPU-Sim uArch:    7   8   9  10  11  12  13
GPGPU-Sim uArch:   14  15  16  17  18  19  20
GPGPU-Sim uArch:   21  22  23  24  25  26  27
GPGPU-Sim uArch:   28  29  30  31  32  33  34
GPGPU-Sim uArch:   35  36  37  38  39  40  41
GPGPU-Sim uArch:   42  43  44  45  46  47  48
GPGPU-Sim uArch:   49
GPGPU-Sim uArch: interconnect node reverse map (icntID to shaderID+MemID)
GPGPU-Sim uArch: Memory nodes start from ID: 28
GPGPU-Sim uArch:    0   1   2   3   4   5   6
GPGPU-Sim uArch:    7   8   9  10  11  12  13
GPGPU-Sim uArch:   14  15  16  17  18  19  20
GPGPU-Sim uArch:   21  22  23  24  25  26  27
GPGPU-Sim uArch:   28  29  30  31  32  33  34
GPGPU-Sim uArch:   35  36  37  38  39  40  41
GPGPU-Sim uArch:   42  43  44  45  46  47  48
GPGPU-Sim uArch:   49
503228a84c5acce04febe5a767a6866d  /root/gpgpu-sim_UVMSmart/benchmarks/Managed/hotspot/hotspot
GPGPU-Sim uArch: performance model initialization complete.
GPGPU-Sim PTX: __cudaRegisterFatBinary, fat_cubin_handle = 1, filename=default
self exe links to: /root/gpgpu-sim_UVMSmart/benchmarks/Managed/hotspot/hotspot
Running md5sum using "md5sum /root/gpgpu-sim_UVMSmart/benchmarks/Managed/hotspot/hotspot "
Parsing file _cuobjdump_complete_output_NJhRir
######### cuobjdump parser ########
## Adding new section ELF
Adding arch: sm_20
Adding identifier: default
## Adding new section ELF
Adding arch: sm_20
Adding identifier: default
## Adding new section PTX
Adding ptx filename: _cuobjdump_1.ptx
Adding arch: sm_20
Adding identifier: default
Done parsing!!!
GPGPU-Sim PTX: __cudaRegisterFunction _Z14calculate_tempiPfS_S_iiiiffffff : hostFun 0x0x401ae2, fat_cubin_handle = 1
GPGPU-Sim PTX: allocating shared region for "_Z14calculate_tempiPfS_S_iiiiffffff$__cuda_local_var_16165_39_non_const_temp_on_cuda" from 0x0 to 0x400 (shared memory space)
GPGPU-Sim PTX: allocating shared region for "_Z14calculate_tempiPfS_S_iiiiffffff$__cuda_local_var_16166_39_non_const_power_on_cuda" from 0x400 to 0x800 (shared memory space)
GPGPU-Sim PTX: allocating shared region for "_Z14calculate_tempiPfS_S_iiiiffffff$__cuda_local_var_16167_39_non_const_temp_t" from 0x800 to 0xc00 (shared memory space)
GPGPU-Sim PTX: instruction assembly for function '_Z14calculate_tempiPfS_S_iiiiffffff'...   done.
GPGPU-Sim PTX: finding reconvergence points for '_Z14calculate_tempiPfS_S_iiiiffffff'...
GPGPU-Sim PTX: Finding dominators for '_Z14calculate_tempiPfS_S_iiiiffffff'...
GPGPU-Sim PTX: Finding immediate dominators for '_Z14calculate_tempiPfS_S_iiiiffffff'...
GPGPU-Sim PTX: Finding postdominators for '_Z14calculate_tempiPfS_S_iiiiffffff'...
GPGPU-Sim PTX: Finding immediate postdominators for '_Z14calculate_tempiPfS_S_iiiiffffff'...
GPGPU-Sim PTX: pre-decoding instructions for '_Z14calculate_tempiPfS_S_iiiiffffff'...
GPGPU-Sim PTX: reconvergence points for _Z14calculate_tempiPfS_S_iiiiffffff...
GPGPU-Sim PTX:  1 (potential) branch divergence @  PC=0x118 (_1.ptx:82) @!%p7 bra BB0_2;
GPGPU-Sim PTX:    immediate post dominator      @  PC=0x1b8 (_1.ptx:106) bar.sync 0;
GPGPU-Sim PTX:  2 (potential) branch divergence @  PC=0x120 (_1.ptx:83) bra.uni BB0_1;
GPGPU-Sim PTX:    immediate post dominator      @  PC=0x128 (_1.ptx:86) mad.lo.s32 %r27, %r1, %r10, %r2;
GPGPU-Sim PTX:  3 (potential) branch divergence @  PC=0x1c8 (_1.ptx:108) @%p8 bra BB0_11;
GPGPU-Sim PTX:    immediate post dominator      @  PC=0x5b0 (_1.ptx:247) and.b16 %rs7, %rs8, 255;
GPGPU-Sim PTX:  4 (potential) branch divergence @  PC=0x338 (_1.ptx:157) @!%p15 bra BB0_7;
GPGPU-Sim PTX:    immediate post dominator      @  PC=0x538 (_1.ptx:226) bar.sync 0;
GPGPU-Sim PTX:  5 (potential) branch divergence @  PC=0x340 (_1.ptx:158) bra.uni BB0_5;
GPGPU-Sim PTX:    immediate post dominator      @  PC=0x348 (_1.ptx:161) setp.gt.s32%p16, %r23, %r6;
GPGPU-Sim PTX:  6 (potential) branch divergence @  PC=0x3d0 (_1.ptx:178) @%p28 bra BB0_7;
GPGPU-Sim PTX:    immediate post dominator      @  PC=0x538 (_1.ptx:226) bar.sync 0;
GPGPU-Sim PTX:  7 (potential) branch divergence @  PC=0x548 (_1.ptx:228) @%p31 bra BB0_11;
GPGPU-Sim PTX:    immediate post dominator      @  PC=0x5b0 (_1.ptx:247) and.b16 %rs7, %rs8, 255;
GPGPU-Sim PTX:  8 (potential) branch divergence @  PC=0x558 (_1.ptx:231) @%p32 bra BB0_10;
GPGPU-Sim PTX:    immediate post dominator      @  PC=0x590 (_1.ptx:241) bar.sync 0;
GPGPU-Sim PTX:  9 (potential) branch divergence @  PC=0x5a8 (_1.ptx:244) @%p33 bra BB0_4;
GPGPU-Sim PTX:    immediate post dominator      @  PC=0x5b0 (_1.ptx:247) and.b16 %rs7, %rs8, 255;
GPGPU-Sim PTX: 10 (potential) branch divergence @  PC=0x5c0 (_1.ptx:249) @%p34 bra BB0_13;
GPGPU-Sim PTX:    immediate post dominator      @  PC=0x620 (_1.ptx:264) ret;
GPGPU-Sim PTX: ... end of reconvergence points for _Z14calculate_tempiPfS_S_iiiiffffff
GPGPU-Sim PTX: ... done pre-decoding instructions for '_Z14calculate_tempiPfS_S_iiiiffffff'.
GPGPU-Sim PTX: finished parsing EMBEDDED .ptx file _1.ptx
Adding _cuobjdump_1.ptx with cubin handle 1
GPGPU-Sim PTX: extracting embedded .ptx to temporary file "_ptx_EOUHis"
Running: cat _ptx_EOUHis | sed 's/.version 1.5/.version 1.4/' | sed 's/, texmode_independent//' | sed 's/\(\.extern \.const\[1\] .b8 \w\+\)\[\]/\1\[1\]/' | sed 's/const\[.\]/const\[0\]/g' > _ptx2_Ncyzit
GPGPU-Sim PTX: generating ptxinfo using "$CUDA_INSTALL_PATH/bin/ptxas --gpu-name=sm_20 -v _ptx2_Ncyzit --output-file  /dev/null 2> _ptx_EOUHisinfo"
GPGPU-Sim PTX: Kernel '_Z14calculate_tempiPfS_S_iiiiffffff' : regs=34, lmem=0, smem=3072, cmem=120
GPGPU-Sim PTX: removing ptxinfo using "rm -f _ptx_EOUHis _ptx2_Ncyzit _ptx_EOUHisinfo"
GPGPU-Sim PTX: loading globals with explicit initializers... 
GPGPU-Sim PTX: finished loading globals (0 bytes total).
GPGPU-Sim PTX: loading constants with explicit initializers...  done.
WG size of kernel = 16 X 16
pyramidHeight: 2
gridSize: [1024, 1024]
border:[2, 2]
blockGrid:[86, 86]
targetBlock:[12, 12]
Start computing the transient temperature

GPGPU-Sim PTX: cudaLaunch for 0x0x401ae2 (mode=performance simulation) on stream 0
GPGPU-Sim PTX: pushing kernel '_Z14calculate_tempiPfS_S_iiiiffffff' to stream 0, gridDim= (86,86,1) blockDim = (16,16,1) 
GPGPU-Sim uArch: Shader 1 bind to kernel 1 '_Z14calculate_tempiPfS_S_iiiiffffff'
GPGPU-Sim uArch: CTA/core = 7, limited by: regs
GPGPU-Sim uArch: Shader 2 bind to kernel 1 '_Z14calculate_tempiPfS_S_iiiiffffff'
GPGPU-Sim uArch: Shader 3 bind to kernel 1 '_Z14calculate_tempiPfS_S_iiiiffffff'
GPGPU-Sim uArch: Shader 4 bind to kernel 1 '_Z14calculate_tempiPfS_S_iiiiffffff'
GPGPU-Sim uArch: Shader 5 bind to kernel 1 '_Z14calculate_tempiPfS_S_iiiiffffff'
GPGPU-Sim uArch: Shader 6 bind to kernel 1 '_Z14calculate_tempiPfS_S_iiiiffffff'
GPGPU-Sim uArch: Shader 7 bind to kernel 1 '_Z14calculate_tempiPfS_S_iiiiffffff'
GPGPU-Sim uArch: Shader 8 bind to kernel 1 '_Z14calculate_tempiPfS_S_iiiiffffff'
GPGPU-Sim uArch: Shader 9 bind to kernel 1 '_Z14calculate_tempiPfS_S_iiiiffffff'
GPGPU-Sim uArch: Shader 10 bind to kernel 1 '_Z14calculate_tempiPfS_S_iiiiffffff'
GPGPU-Sim uArch: Shader 11 bind to kernel 1 '_Z14calculate_tempiPfS_S_iiiiffffff'
GPGPU-Sim uArch: Shader 12 bind to kernel 1 '_Z14calculate_tempiPfS_S_iiiiffffff'
GPGPU-Sim uArch: Shader 13 bind to kernel 1 '_Z14calculate_tempiPfS_S_iiiiffffff'
GPGPU-Sim uArch: Shader 14 bind to kernel 1 '_Z14calculate_tempiPfS_S_iiiiffffff'
GPGPU-Sim uArch: Shader 15 bind to kernel 1 '_Z14calculate_tempiPfS_S_iiiiffffff'
GPGPU-Sim uArch: Shader 16 bind to kernel 1 '_Z14calculate_tempiPfS_S_iiiiffffff'
GPGPU-Sim uArch: Shader 17 bind to kernel 1 '_Z14calculate_tempiPfS_S_iiiiffffff'
GPGPU-Sim uArch: Shader 18 bind to kernel 1 '_Z14calculate_tempiPfS_S_iiiiffffff'
GPGPU-Sim uArch: Shader 19 bind to kernel 1 '_Z14calculate_tempiPfS_S_iiiiffffff'
GPGPU-Sim uArch: Shader 20 bind to kernel 1 '_Z14calculate_tempiPfS_S_iiiiffffff'
GPGPU-Sim uArch: Shader 21 bind to kernel 1 '_Z14calculate_tempiPfS_S_iiiiffffff'
GPGPU-Sim uArch: Shader 22 bind to kernel 1 '_Z14calculate_tempiPfS_S_iiiiffffff'
GPGPU-Sim uArch: Shader 23 bind to kernel 1 '_Z14calculate_tempiPfS_S_iiiiffffff'
GPGPU-Sim uArch: Shader 24 bind to kernel 1 '_Z14calculate_tempiPfS_S_iiiiffffff'
GPGPU-Sim uArch: Shader 25 bind to kernel 1 '_Z14calculate_tempiPfS_S_iiiiffffff'
GPGPU-Sim uArch: Shader 26 bind to kernel 1 '_Z14calculate_tempiPfS_S_iiiiffffff'
GPGPU-Sim uArch: Shader 27 bind to kernel 1 '_Z14calculate_tempiPfS_S_iiiiffffff'
GPGPU-Sim uArch: Shader 0 bind to kernel 1 '_Z14calculate_tempiPfS_S_iiiiffffff'
GPGPU-Sim uArch: Shader 1 bind to kernel 1 '_Z14calculate_tempiPfS_S_iiiiffffff'
GPGPU-Sim uArch: Shader 2 bind to kernel 1 '_Z14calculate_tempiPfS_S_iiiiffffff'
GPGPU-Sim uArch: Shader 3 bind to kernel 1 '_Z14calculate_tempiPfS_S_iiiiffffff'
GPGPU-Sim uArch: Shader 4 bind to kernel 1 '_Z14calculate_tempiPfS_S_iiiiffffff'
GPGPU-Sim uArch: Shader 6 bind to kernel 1 '_Z14calculate_tempiPfS_S_iiiiffffff'
GPGPU-Sim uArch: Shader 9 bind to kernel 1 '_Z14calculate_tempiPfS_S_iiiiffffff'
GPGPU-Sim uArch: Shader 10 bind to kernel 1 '_Z14calculate_tempiPfS_S_iiiiffffff'
GPGPU-Sim uArch: Shader 12 bind to kernel 1 '_Z14calculate_tempiPfS_S_iiiiffffff'
GPGPU-Sim uArch: Shader 15 bind to kernel 1 '_Z14calculate_tempiPfS_S_iiiiffffff'
GPGPU-Sim uArch: Shader 17 bind to kernel 1 '_Z14calculate_tempiPfS_S_iiiiffffff'
GPGPU-Sim uArch: Shader 18 bind to kernel 1 '_Z14calculate_tempiPfS_S_iiiiffffff'
GPGPU-Sim uArch: Shader 19 bind to kernel 1 '_Z14calculate_tempiPfS_S_iiiiffffff'
GPGPU-Sim uArch: Shader 20 bind to kernel 1 '_Z14calculate_tempiPfS_S_iiiiffffff'
GPGPU-Sim uArch: Shader 21 bind to kernel 1 '_Z14calculate_tempiPfS_S_iiiiffffff'
GPGPU-Sim uArch: Shader 23 bind to kernel 1 '_Z14calculate_tempiPfS_S_iiiiffffff'
GPGPU-Sim uArch: Shader 25 bind to kernel 1 '_Z14calculate_tempiPfS_S_iiiiffffff'
GPGPU-Sim uArch: Shader 26 bind to kernel 1 '_Z14calculate_tempiPfS_S_iiiiffffff'
GPGPU-Sim uArch: Shader 27 bind to kernel 1 '_Z14calculate_tempiPfS_S_iiiiffffff'
GPGPU-Sim uArch: Shader 0 bind to kernel 1 '_Z14calculate_tempiPfS_S_iiiiffffff'
GPGPU-Sim uArch: Shader 1 bind to kernel 1 '_Z14calculate_tempiPfS_S_iiiiffffff'
GPGPU-Sim uArch: Shader 2 bind to kernel 1 '_Z14calculate_tempiPfS_S_iiiiffffff'
GPGPU-Sim uArch: Shader 3 bind to kernel 1 '_Z14calculate_tempiPfS_S_iiiiffffff'
GPGPU-Sim uArch: Shader 6 bind to kernel 1 '_Z14calculate_tempiPfS_S_iiiiffffff'
GPGPU-Sim uArch: Shader 7 bind to kernel 1 '_Z14calculate_tempiPfS_S_iiiiffffff'
GPGPU-Sim uArch: Shader 8 bind to kernel 1 '_Z14calculate_tempiPfS_S_iiiiffffff'
GPGPU-Sim uArch: Shader 10 bind to kernel 1 '_Z14calculate_tempiPfS_S_iiiiffffff'
GPGPU-Sim uArch: Shader 13 bind to kernel 1 '_Z14calculate_tempiPfS_S_iiiiffffff'
GPGPU-Sim uArch: Shader 15 bind to kernel 1 '_Z14calculate_tempiPfS_S_iiiiffffff'
GPGPU-Sim uArch: Shader 18 bind to kernel 1 '_Z14calculate_tempiPfS_S_iiiiffffff'
GPGPU-Sim uArch: Shader 20 bind to kernel 1 '_Z14calculate_tempiPfS_S_iiiiffffff'
GPGPU-Sim uArch: Shader 23 bind to kernel 1 '_Z14calculate_tempiPfS_S_iiiiffffff'
GPGPU-Sim uArch: Shader 25 bind to kernel 1 '_Z14calculate_tempiPfS_S_iiiiffffff'
GPGPU-Sim uArch: Shader 0 bind to kernel 1 '_Z14calculate_tempiPfS_S_iiiiffffff'
GPGPU-Sim uArch: Shader 1 bind to kernel 1 '_Z14calculate_tempiPfS_S_iiiiffffff'
GPGPU-Sim uArch: Shader 3 bind to kernel 1 '_Z14calculate_tempiPfS_S_iiiiffffff'
GPGPU-Sim uArch: Shader 4 bind to kernel 1 '_Z14calculate_tempiPfS_S_iiiiffffff'
GPGPU-Sim uArch: Shader 6 bind to kernel 1 '_Z14calculate_tempiPfS_S_iiiiffffff'
GPGPU-Sim uArch: Shader 7 bind to kernel 1 '_Z14calculate_tempiPfS_S_iiiiffffff'
GPGPU-Sim uArch: Shader 8 bind to kernel 1 '_Z14calculate_tempiPfS_S_iiiiffffff'
GPGPU-Sim uArch: Shader 9 bind to kernel 1 '_Z14calculate_tempiPfS_S_iiiiffffff'
GPGPU-Sim uArch: Shader 10 bind to kernel 1 '_Z14calculate_tempiPfS_S_iiiiffffff'
GPGPU-Sim uArch: Shader 11 bind to kernel 1 '_Z14calculate_tempiPfS_S_iiiiffffff'
GPGPU-Sim uArch: Shader 12 bind to kernel 1 '_Z14calculate_tempiPfS_S_iiiiffffff'
GPGPU-Sim uArch: Shader 13 bind to kernel 1 '_Z14calculate_tempiPfS_S_iiiiffffff'
GPGPU-Sim uArch: Shader 14 bind to kernel 1 '_Z14calculate_tempiPfS_S_iiiiffffff'
GPGPU-Sim uArch: Shader 15 bind to kernel 1 '_Z14calculate_tempiPfS_S_iiiiffffff'
GPGPU-Sim uArch: Shader 16 bind to kernel 1 '_Z14calculate_tempiPfS_S_iiiiffffff'
GPGPU-Sim uArch: Shader 17 bind to kernel 1 '_Z14calculate_tempiPfS_S_iiiiffffff'
GPGPU-Sim uArch: Shader 18 bind to kernel 1 '_Z14calculate_tempiPfS_S_iiiiffffff'
GPGPU-Sim uArch: Shader 19 bind to kernel 1 '_Z14calculate_tempiPfS_S_iiiiffffff'
GPGPU-Sim uArch: Shader 20 bind to kernel 1 '_Z14calculate_tempiPfS_S_iiiiffffff'
GPGPU-Sim uArch: Shader 21 bind to kernel 1 '_Z14calculate_tempiPfS_S_iiiiffffff'
GPGPU-Sim uArch: Shader 22 bind to kernel 1 '_Z14calculate_tempiPfS_S_iiiiffffff'
GPGPU-Sim uArch: Shader 24 bind to kernel 1 '_Z14calculate_tempiPfS_S_iiiiffffff'
GPGPU-Sim uArch: Shader 25 bind to kernel 1 '_Z14calculate_tempiPfS_S_iiiiffffff'
GPGPU-Sim uArch: Shader 26 bind to kernel 1 '_Z14calculate_tempiPfS_S_iiiiffffff'
GPGPU-Sim uArch: Shader 22 bind to kernel 1 '_Z14calculate_tempiPfS_S_iiiiffffff'
GPGPU-Sim uArch: Shader 24 bind to kernel 1 '_Z14calculate_tempiPfS_S_iiiiffffff'
GPGPU-Sim uArch: Shader 25 bind to kernel 1 '_Z14calculate_tempiPfS_S_iiiiffffff'
GPGPU-Sim uArch: Shader 26 bind to kernel 1 '_Z14calculate_tempiPfS_S_iiiiffffff'
GPGPU-Sim uArch: Shader 0 bind to kernel 1 '_Z14calculate_tempiPfS_S_iiiiffffff'
GPGPU-Sim uArch: Shader 1 bind to kernel 1 '_Z14calculate_tempiPfS_S_iiiiffffff'
GPGPU-Sim uArch: Shader 4 bind to kernel 1 '_Z14calculate_tempiPfS_S_iiiiffffff'
GPGPU-Sim uArch: Shader 5 bind to kernel 1 '_Z14calculate_tempiPfS_S_iiiiffffff'
GPGPU-Sim uArch: Shader 6 bind to kernel 1 '_Z14calculate_tempiPfS_S_iiiiffffff'
GPGPU-Sim uArch: Shader 7 bind to kernel 1 '_Z14calculate_tempiPfS_S_iiiiffffff'
GPGPU-Sim uArch: Shader 9 bind to kernel 1 '_Z14calculate_tempiPfS_S_iiiiffffff'
GPGPU-Sim uArch: Shader 13 bind to kernel 1 '_Z14calculate_tempiPfS_S_iiiiffffff'
GPGPU-Sim uArch: Shader 14 bind to kernel 1 '_Z14calculate_tempiPfS_S_iiiiffffff'
GPGPU-Sim uArch: Shader 15 bind to kernel 1 '_Z14calculate_tempiPfS_S_iiiiffffff'
GPGPU-Sim uArch: Shader 16 bind to kernel 1 '_Z14calculate_tempiPfS_S_iiiiffffff'
GPGPU-Sim uArch: Shader 20 bind to kernel 1 '_Z14calculate_tempiPfS_S_iiiiffffff'
GPGPU-Sim uArch: Shader 17 bind to kernel 1 '_Z14calculate_tempiPfS_S_iiiiffffff'
GPGPU-Sim uArch: Shader 18 bind to kernel 1 '_Z14calculate_tempiPfS_S_iiiiffffff'
GPGPU-Sim uArch: Shader 19 bind to kernel 1 '_Z14calculate_tempiPfS_S_iiiiffffff'
GPGPU-Sim uArch: Shader 20 bind to kernel 1 '_Z14calculate_tempiPfS_S_iiiiffffff'
GPGPU-Sim uArch: Shader 21 bind to kernel 1 '_Z14calculate_tempiPfS_S_iiiiffffff'
GPGPU-Sim uArch: Shader 22 bind to kernel 1 '_Z14calculate_tempiPfS_S_iiiiffffff'
GPGPU-Sim uArch: Shader 23 bind to kernel 1 '_Z14calculate_tempiPfS_S_iiiiffffff'
GPGPU-Sim uArch: Shader 24 bind to kernel 1 '_Z14calculate_tempiPfS_S_iiiiffffff'
GPGPU-Sim uArch: Shader 25 bind to kernel 1 '_Z14calculate_tempiPfS_S_iiiiffffff'
GPGPU-Sim uArch: Shader 26 bind to kernel 1 '_Z14calculate_tempiPfS_S_iiiiffffff'
GPGPU-Sim uArch: Shader 27 bind to kernel 1 '_Z14calculate_tempiPfS_S_iiiiffffff'
GPGPU-Sim uArch: Shader 0 bind to kernel 1 '_Z14calculate_tempiPfS_S_iiiiffffff'
GPGPU-Sim uArch: Shader 1 bind to kernel 1 '_Z14calculate_tempiPfS_S_iiiiffffff'
GPGPU-Sim uArch: Shader 2 bind to kernel 1 '_Z14calculate_tempiPfS_S_iiiiffffff'
GPGPU-Sim uArch: Shader 3 bind to kernel 1 '_Z14calculate_tempiPfS_S_iiiiffffff'
GPGPU-Sim uArch: Shader 4 bind to kernel 1 '_Z14calculate_tempiPfS_S_iiiiffffff'
GPGPU-Sim uArch: Shader 5 bind to kernel 1 '_Z14calculate_tempiPfS_S_iiiiffffff'
GPGPU-Sim uArch: Shader 6 bind to kernel 1 '_Z14calculate_tempiPfS_S_iiiiffffff'
GPGPU-Sim uArch: Shader 7 bind to kernel 1 '_Z14calculate_tempiPfS_S_iiiiffffff'
GPGPU-Sim uArch: Shader 8 bind to kernel 1 '_Z14calculate_tempiPfS_S_iiiiffffff'
GPGPU-Sim uArch: Shader 9 bind to kernel 1 '_Z14calculate_tempiPfS_S_iiiiffffff'
GPGPU-Sim uArch: Shader 10 bind to kernel 1 '_Z14calculate_tempiPfS_S_iiiiffffff'
GPGPU-Sim uArch: Shader 11 bind to kernel 1 '_Z14calculate_tempiPfS_S_iiiiffffff'
GPGPU-Sim uArch: Shader 13 bind to kernel 1 '_Z14calculate_tempiPfS_S_iiiiffffff'
GPGPU-Sim uArch: Shader 14 bind to kernel 1 '_Z14calculate_tempiPfS_S_iiiiffffff'
GPGPU-Sim uArch: Shader 15 bind to kernel 1 '_Z14calculate_tempiPfS_S_iiiiffffff'
GPGPU-Sim uArch: Shader 17 bind to kernel 1 '_Z14calculate_tempiPfS_S_iiiiffffff'
GPGPU-Sim uArch: Shader 18 bind to kernel 1 '_Z14calculate_tempiPfS_S_iiiiffffff'
GPGPU-Sim uArch: Shader 8 bind to kernel 1 '_Z14calculate_tempiPfS_S_iiiiffffff'
GPGPU-Sim uArch: Shader 10 bind to kernel 1 '_Z14calculate_tempiPfS_S_iiiiffffff'
GPGPU-Sim uArch: Shader 11 bind to kernel 1 '_Z14calculate_tempiPfS_S_iiiiffffff'
GPGPU-Sim uArch: Shader 12 bind to kernel 1 '_Z14calculate_tempiPfS_S_iiiiffffff'
GPGPU-Sim uArch: Shader 13 bind to kernel 1 '_Z14calculate_tempiPfS_S_iiiiffffff'
GPGPU-Sim uArch: Shader 14 bind to kernel 1 '_Z14calculate_tempiPfS_S_iiiiffffff'
GPGPU-Sim uArch: Shader 15 bind to kernel 1 '_Z14calculate_tempiPfS_S_iiiiffffff'
GPGPU-Sim uArch: Shader 16 bind to kernel 1 '_Z14calculate_tempiPfS_S_iiiiffffff'
GPGPU-Sim uArch: Shader 17 bind to kernel 1 '_Z14calculate_tempiPfS_S_iiiiffffff'
GPGPU-Sim uArch: Shader 19 bind to kernel 1 '_Z14calculate_tempiPfS_S_iiiiffffff'
GPGPU-Sim uArch: Shader 20 bind to kernel 1 '_Z14calculate_tempiPfS_S_iiiiffffff'
GPGPU-Sim uArch: Shader 21 bind to kernel 1 '_Z14calculate_tempiPfS_S_iiiiffffff'
GPGPU-Sim uArch: Shader 23 bind to kernel 1 '_Z14calculate_tempiPfS_S_iiiiffffff'
GPGPU-Sim uArch: Shader 25 bind to kernel 1 '_Z14calculate_tempiPfS_S_iiiiffffff'
GPGPU-Sim uArch: Shader 26 bind to kernel 1 '_Z14calculate_tempiPfS_S_iiiiffffff'
GPGPU-Sim uArch: Shader 1 bind to kernel 1 '_Z14calculate_tempiPfS_S_iiiiffffff'
GPGPU-Sim uArch: Shader 2 bind to kernel 1 '_Z14calculate_tempiPfS_S_iiiiffffff'
GPGPU-Sim uArch: Shader 3 bind to kernel 1 '_Z14calculate_tempiPfS_S_iiiiffffff'
GPGPU-Sim uArch: Shader 5 bind to kernel 1 '_Z14calculate_tempiPfS_S_iiiiffffff'
GPGPU-Sim uArch: Shader 4 bind to kernel 1 '_Z14calculate_tempiPfS_S_iiiiffffff'
GPGPU-Sim uArch: Shader 5 bind to kernel 1 '_Z14calculate_tempiPfS_S_iiiiffffff'
GPGPU-Sim uArch: Shader 7 bind to kernel 1 '_Z14calculate_tempiPfS_S_iiiiffffff'
GPGPU-Sim uArch: Shader 10 bind to kernel 1 '_Z14calculate_tempiPfS_S_iiiiffffff'
GPGPU-Sim uArch: Shader 11 bind to kernel 1 '_Z14calculate_tempiPfS_S_iiiiffffff'
GPGPU-Sim uArch: Shader 14 bind to kernel 1 '_Z14calculate_tempiPfS_S_iiiiffffff'
GPGPU-Sim uArch: Shader 15 bind to kernel 1 '_Z14calculate_tempiPfS_S_iiiiffffff'
GPGPU-Sim uArch: Shader 18 bind to kernel 1 '_Z14calculate_tempiPfS_S_iiiiffffff'
GPGPU-Sim uArch: Shader 23 bind to kernel 1 '_Z14calculate_tempiPfS_S_iiiiffffff'
GPGPU-Sim uArch: Shader 24 bind to kernel 1 '_Z14calculate_tempiPfS_S_iiiiffffff'
GPGPU-Sim uArch: Shader 26 bind to kernel 1 '_Z14calculate_tempiPfS_S_iiiiffffff'
GPGPU-Sim uArch: Shader 15 bind to kernel 1 '_Z14calculate_tempiPfS_S_iiiiffffff'
GPGPU-Sim uArch: Shader 16 bind to kernel 1 '_Z14calculate_tempiPfS_S_iiiiffffff'
GPGPU-Sim uArch: Shader 18 bind to kernel 1 '_Z14calculate_tempiPfS_S_iiiiffffff'
GPGPU-Sim uArch: Shader 19 bind to kernel 1 '_Z14calculate_tempiPfS_S_iiiiffffff'
GPGPU-Sim uArch: Shader 21 bind to kernel 1 '_Z14calculate_tempiPfS_S_iiiiffffff'
GPGPU-Sim uArch: Shader 22 bind to kernel 1 '_Z14calculate_tempiPfS_S_iiiiffffff'
GPGPU-Sim uArch: Shader 23 bind to kernel 1 '_Z14calculate_tempiPfS_S_iiiiffffff'
GPGPU-Sim uArch: Shader 24 bind to kernel 1 '_Z14calculate_tempiPfS_S_iiiiffffff'
GPGPU-Sim uArch: Shader 25 bind to kernel 1 '_Z14calculate_tempiPfS_S_iiiiffffff'
GPGPU-Sim uArch: Shader 26 bind to kernel 1 '_Z14calculate_tempiPfS_S_iiiiffffff'
GPGPU-Sim uArch: Shader 0 bind to kernel 1 '_Z14calculate_tempiPfS_S_iiiiffffff'
GPGPU-Sim uArch: Shader 1 bind to kernel 1 '_Z14calculate_tempiPfS_S_iiiiffffff'
GPGPU-Sim uArch: Shader 2 bind to kernel 1 '_Z14calculate_tempiPfS_S_iiiiffffff'
GPGPU-Sim uArch: Shader 3 bind to kernel 1 '_Z14calculate_tempiPfS_S_iiiiffffff'
GPGPU-Sim uArch: Shader 4 bind to kernel 1 '_Z14calculate_tempiPfS_S_iiiiffffff'
GPGPU-Sim uArch: Shader 5 bind to kernel 1 '_Z14calculate_tempiPfS_S_iiiiffffff'
GPGPU-Sim uArch: Shader 6 bind to kernel 1 '_Z14calculate_tempiPfS_S_iiiiffffff'
GPGPU-Sim uArch: Shader 7 bind to kernel 1 '_Z14calculate_tempiPfS_S_iiiiffffff'
GPGPU-Sim uArch: Shader 8 bind to kernel 1 '_Z14calculate_tempiPfS_S_iiiiffffff'
GPGPU-Sim uArch: Shader 9 bind to kernel 1 '_Z14calculate_tempiPfS_S_iiiiffffff'
GPGPU-Sim uArch: Shader 10 bind to kernel 1 '_Z14calculate_tempiPfS_S_iiiiffffff'
GPGPU-Sim uArch: Shader 11 bind to kernel 1 '_Z14calculate_tempiPfS_S_iiiiffffff'
GPGPU-Sim uArch: Shader 12 bind to kernel 1 '_Z14calculate_tempiPfS_S_iiiiffffff'
GPGPU-Sim uArch: Shader 7 bind to kernel 1 '_Z14calculate_tempiPfS_S_iiiiffffff'
GPGPU-Sim uArch: Shader 8 bind to kernel 1 '_Z14calculate_tempiPfS_S_iiiiffffff'
GPGPU-Sim uArch: Shader 10 bind to kernel 1 '_Z14calculate_tempiPfS_S_iiiiffffff'
GPGPU-Sim uArch: Shader 13 bind to kernel 1 '_Z14calculate_tempiPfS_S_iiiiffffff'
GPGPU-Sim uArch: Shader 14 bind to kernel 1 '_Z14calculate_tempiPfS_S_iiiiffffff'
GPGPU-Sim uArch: Shader 15 bind to kernel 1 '_Z14calculate_tempiPfS_S_iiiiffffff'
GPGPU-Sim uArch: Shader 16 bind to kernel 1 '_Z14calculate_tempiPfS_S_iiiiffffff'
GPGPU-Sim uArch: Shader 17 bind to kernel 1 '_Z14calculate_tempiPfS_S_iiiiffffff'
GPGPU-Sim uArch: Shader 18 bind to kernel 1 '_Z14calculate_tempiPfS_S_iiiiffffff'
GPGPU-Sim uArch: Shader 19 bind to kernel 1 '_Z14calculate_tempiPfS_S_iiiiffffff'
GPGPU-Sim uArch: Shader 20 bind to kernel 1 '_Z14calculate_tempiPfS_S_iiiiffffff'
GPGPU-Sim uArch: Shader 23 bind to kernel 1 '_Z14calculate_tempiPfS_S_iiiiffffff'
GPGPU-Sim uArch: Shader 27 bind to kernel 1 '_Z14calculate_tempiPfS_S_iiiiffffff'
GPGPU-Sim uArch: Shader 0 bind to kernel 1 '_Z14calculate_tempiPfS_S_iiiiffffff'
GPGPU-Sim uArch: Shader 2 bind to kernel 1 '_Z14calculate_tempiPfS_S_iiiiffffff'
GPGPU-Sim uArch: Shader 3 bind to kernel 1 '_Z14calculate_tempiPfS_S_iiiiffffff'
GPGPU-Sim uArch: Shader 24 bind to kernel 1 '_Z14calculate_tempiPfS_S_iiiiffffff'
GPGPU-Sim uArch: Shader 25 bind to kernel 1 '_Z14calculate_tempiPfS_S_iiiiffffff'
GPGPU-Sim uArch: Shader 26 bind to kernel 1 '_Z14calculate_tempiPfS_S_iiiiffffff'
GPGPU-Sim uArch: Shader 27 bind to kernel 1 '_Z14calculate_tempiPfS_S_iiiiffffff'
GPGPU-Sim uArch: Shader 0 bind to kernel 1 '_Z14calculate_tempiPfS_S_iiiiffffff'
GPGPU-Sim uArch: Shader 2 bind to kernel 1 '_Z14calculate_tempiPfS_S_iiiiffffff'
GPGPU-Sim uArch: Shader 3 bind to kernel 1 '_Z14calculate_tempiPfS_S_iiiiffffff'
GPGPU-Sim uArch: Shader 4 bind to kernel 1 '_Z14calculate_tempiPfS_S_iiiiffffff'
GPGPU-Sim uArch: Shader 6 bind to kernel 1 '_Z14calculate_tempiPfS_S_iiiiffffff'
GPGPU-Sim uArch: Shader 7 bind to kernel 1 '_Z14calculate_tempiPfS_S_iiiiffffff'
GPGPU-Sim uArch: Shader 8 bind to kernel 1 '_Z14calculate_tempiPfS_S_iiiiffffff'
GPGPU-Sim uArch: Shader 9 bind to kernel 1 '_Z14calculate_tempiPfS_S_iiiiffffff'
GPGPU-Sim uArch: Shader 10 bind to kernel 1 '_Z14calculate_tempiPfS_S_iiiiffffff'
GPGPU-Sim uArch: Shader 12 bind to kernel 1 '_Z14calculate_tempiPfS_S_iiiiffffff'
GPGPU-Sim uArch: Shader 13 bind to kernel 1 '_Z14calculate_tempiPfS_S_iiiiffffff'
GPGPU-Sim uArch: Shader 14 bind to kernel 1 '_Z14calculate_tempiPfS_S_iiiiffffff'
GPGPU-Sim uArch: Shader 15 bind to kernel 1 '_Z14calculate_tempiPfS_S_iiiiffffff'
GPGPU-Sim uArch: Shader 16 bind to kernel 1 '_Z14calculate_tempiPfS_S_iiiiffffff'
GPGPU-Sim uArch: Shader 17 bind to kernel 1 '_Z14calculate_tempiPfS_S_iiiiffffff'
GPGPU-Sim uArch: Shader 18 bind to kernel 1 '_Z14calculate_tempiPfS_S_iiiiffffff'
GPGPU-Sim uArch: Shader 19 bind to kernel 1 '_Z14calculate_tempiPfS_S_iiiiffffff'
GPGPU-Sim uArch: Shader 20 bind to kernel 1 '_Z14calculate_tempiPfS_S_iiiiffffff'
GPGPU-Sim uArch: Shader 21 bind to kernel 1 '_Z14calculate_tempiPfS_S_iiiiffffff'
GPGPU-Sim uArch: Shader 22 bind to kernel 1 '_Z14calculate_tempiPfS_S_iiiiffffff'
Destroy streams for kernel 1: size 0
kernel_name = _Z14calculate_tempiPfS_S_iiiiffffff 
kernel_launch_uid = 1 
gpu_sim_cycle = 8030516
gpu_sim_insn = 415466464
gpu_ipc =      51.7360
gpu_tot_sim_cycle = 8252666
gpu_tot_sim_insn = 415466464
gpu_tot_ipc =      50.3433
gpu_tot_issued_cta = 7396
max_total_param_size = 0
gpu_stall_dramfull = 190
gpu_stall_icnt2sh    = 258317
partiton_reqs_in_parallel = 176671162
partiton_reqs_in_parallel_total    = 0
partiton_level_parallism =      22.0000
partiton_level_parallism_total  =      21.4078
partiton_reqs_in_parallel_util = 176671162
partiton_reqs_in_parallel_util_total    = 0
gpu_sim_cycle_parition_util = 8030516
gpu_tot_sim_cycle_parition_util    = 0
partiton_level_parallism_util =      22.0000
partiton_level_parallism_util_total  =      22.0000
partiton_replys_in_parallel = 456444
partiton_replys_in_parallel_total    = 0
L2_BW  =       5.3874 GB/Sec
L2_BW_total  =       5.2424 GB/Sec
gpu_total_sim_rate=49584

========= Core cache stats =========
L1I_cache:
	L1I_total_cache_accesses = 7740000
	L1I_total_cache_misses = 8689
	L1I_total_cache_miss_rate = 0.0011
	L1I_total_cache_pending_hits = 0
	L1I_total_cache_reservation_fails = 6846
L1D_cache:
	L1D_cache_core[0]: Access = 0, Miss = 0, Miss_rate = -nan, Pending_hits = 0, Reservation_fails = 0
	L1D_cache_core[1]: Access = 0, Miss = 0, Miss_rate = -nan, Pending_hits = 0, Reservation_fails = 0
	L1D_cache_core[2]: Access = 0, Miss = 0, Miss_rate = -nan, Pending_hits = 0, Reservation_fails = 0
	L1D_cache_core[3]: Access = 0, Miss = 0, Miss_rate = -nan, Pending_hits = 0, Reservation_fails = 0
	L1D_cache_core[4]: Access = 0, Miss = 0, Miss_rate = -nan, Pending_hits = 0, Reservation_fails = 0
	L1D_cache_core[5]: Access = 0, Miss = 0, Miss_rate = -nan, Pending_hits = 0, Reservation_fails = 0
	L1D_cache_core[6]: Access = 0, Miss = 0, Miss_rate = -nan, Pending_hits = 0, Reservation_fails = 0
	L1D_cache_core[7]: Access = 0, Miss = 0, Miss_rate = -nan, Pending_hits = 0, Reservation_fails = 0
	L1D_cache_core[8]: Access = 0, Miss = 0, Miss_rate = -nan, Pending_hits = 0, Reservation_fails = 0
	L1D_cache_core[9]: Access = 0, Miss = 0, Miss_rate = -nan, Pending_hits = 0, Reservation_fails = 0
	L1D_cache_core[10]: Access = 0, Miss = 0, Miss_rate = -nan, Pending_hits = 0, Reservation_fails = 0
	L1D_cache_core[11]: Access = 0, Miss = 0, Miss_rate = -nan, Pending_hits = 0, Reservation_fails = 0
	L1D_cache_core[12]: Access = 0, Miss = 0, Miss_rate = -nan, Pending_hits = 0, Reservation_fails = 0
	L1D_cache_core[13]: Access = 0, Miss = 0, Miss_rate = -nan, Pending_hits = 0, Reservation_fails = 0
	L1D_cache_core[14]: Access = 0, Miss = 0, Miss_rate = -nan, Pending_hits = 0, Reservation_fails = 0
	L1D_cache_core[15]: Access = 0, Miss = 0, Miss_rate = -nan, Pending_hits = 0, Reservation_fails = 0
	L1D_cache_core[16]: Access = 0, Miss = 0, Miss_rate = -nan, Pending_hits = 0, Reservation_fails = 0
	L1D_cache_core[17]: Access = 0, Miss = 0, Miss_rate = -nan, Pending_hits = 0, Reservation_fails = 0
	L1D_cache_core[18]: Access = 0, Miss = 0, Miss_rate = -nan, Pending_hits = 0, Reservation_fails = 0
	L1D_cache_core[19]: Access = 0, Miss = 0, Miss_rate = -nan, Pending_hits = 0, Reservation_fails = 0
	L1D_cache_core[20]: Access = 0, Miss = 0, Miss_rate = -nan, Pending_hits = 0, Reservation_fails = 0
	L1D_cache_core[21]: Access = 0, Miss = 0, Miss_rate = -nan, Pending_hits = 0, Reservation_fails = 0
	L1D_cache_core[22]: Access = 0, Miss = 0, Miss_rate = -nan, Pending_hits = 0, Reservation_fails = 0
	L1D_cache_core[23]: Access = 0, Miss = 0, Miss_rate = -nan, Pending_hits = 0, Reservation_fails = 0
	L1D_cache_core[24]: Access = 0, Miss = 0, Miss_rate = -nan, Pending_hits = 0, Reservation_fails = 0
	L1D_cache_core[25]: Access = 0, Miss = 0, Miss_rate = -nan, Pending_hits = 0, Reservation_fails = 0
	L1D_cache_core[26]: Access = 0, Miss = 0, Miss_rate = -nan, Pending_hits = 0, Reservation_fails = 0
	L1D_cache_core[27]: Access = 0, Miss = 0, Miss_rate = -nan, Pending_hits = 0, Reservation_fails = 0
	L1D_total_cache_accesses = 0
	L1D_total_cache_misses = 0
	L1D_total_cache_pending_hits = 0
	L1D_total_cache_reservation_fails = 0
	L1D_cache_data_port_util = 0.000
	L1D_cache_fill_port_util = 0.000
L1C_cache:
	L1C_total_cache_accesses = 769184
	L1C_total_cache_misses = 2195
	L1C_total_cache_miss_rate = 0.0029
	L1C_total_cache_pending_hits = 0
	L1C_total_cache_reservation_fails = 4886
L1T_cache:
	L1T_total_cache_accesses = 0
	L1T_total_cache_misses = 0
	L1T_total_cache_pending_hits = 0
	L1T_total_cache_reservation_fails = 0

Total_core_cache_stats:
	Total_core_cache_stats_breakdown[GLOBAL_ACC_R][HIT] = 0
	Total_core_cache_stats_breakdown[GLOBAL_ACC_R][HIT_RESERVED] = 0
	Total_core_cache_stats_breakdown[GLOBAL_ACC_R][MISS] = 0
	Total_core_cache_stats_breakdown[GLOBAL_ACC_R][RESERVATION_FAIL] = 0
	Total_core_cache_stats_breakdown[LOCAL_ACC_R][HIT] = 0
	Total_core_cache_stats_breakdown[LOCAL_ACC_R][HIT_RESERVED] = 0
	Total_core_cache_stats_breakdown[LOCAL_ACC_R][MISS] = 0
	Total_core_cache_stats_breakdown[LOCAL_ACC_R][RESERVATION_FAIL] = 0
	Total_core_cache_stats_breakdown[CONST_ACC_R][HIT] = 766989
	Total_core_cache_stats_breakdown[CONST_ACC_R][HIT_RESERVED] = 0
	Total_core_cache_stats_breakdown[CONST_ACC_R][MISS] = 2195
	Total_core_cache_stats_breakdown[CONST_ACC_R][RESERVATION_FAIL] = 4886
	Total_core_cache_stats_breakdown[TEXTURE_ACC_R][HIT] = 0
	Total_core_cache_stats_breakdown[TEXTURE_ACC_R][HIT_RESERVED] = 0
	Total_core_cache_stats_breakdown[TEXTURE_ACC_R][MISS] = 0
	Total_core_cache_stats_breakdown[TEXTURE_ACC_R][RESERVATION_FAIL] = 0
	Total_core_cache_stats_breakdown[GLOBAL_ACC_W][HIT] = 0
	Total_core_cache_stats_breakdown[GLOBAL_ACC_W][HIT_RESERVED] = 0
	Total_core_cache_stats_breakdown[GLOBAL_ACC_W][MISS] = 0
	Total_core_cache_stats_breakdown[GLOBAL_ACC_W][RESERVATION_FAIL] = 0
	Total_core_cache_stats_breakdown[LOCAL_ACC_W][HIT] = 0
	Total_core_cache_stats_breakdown[LOCAL_ACC_W][HIT_RESERVED] = 0
	Total_core_cache_stats_breakdown[LOCAL_ACC_W][MISS] = 0
	Total_core_cache_stats_breakdown[LOCAL_ACC_W][RESERVATION_FAIL] = 0
	Total_core_cache_stats_breakdown[L1_WRBK_ACC][HIT] = 0
	Total_core_cache_stats_breakdown[L1_WRBK_ACC][HIT_RESERVED] = 0
	Total_core_cache_stats_breakdown[L1_WRBK_ACC][MISS] = 0
	Total_core_cache_stats_breakdown[L1_WRBK_ACC][RESERVATION_FAIL] = 0
	Total_core_cache_stats_breakdown[L2_WRBK_ACC][HIT] = 0
	Total_core_cache_stats_breakdown[L2_WRBK_ACC][HIT_RESERVED] = 0
	Total_core_cache_stats_breakdown[L2_WRBK_ACC][MISS] = 0
	Total_core_cache_stats_breakdown[L2_WRBK_ACC][RESERVATION_FAIL] = 0
	Total_core_cache_stats_breakdown[INST_ACC_R][HIT] = 7731311
	Total_core_cache_stats_breakdown[INST_ACC_R][HIT_RESERVED] = 0
	Total_core_cache_stats_breakdown[INST_ACC_R][MISS] = 8689
	Total_core_cache_stats_breakdown[INST_ACC_R][RESERVATION_FAIL] = 6846
	Total_core_cache_stats_breakdown[L1_WR_ALLOC_R][HIT] = 0
	Total_core_cache_stats_breakdown[L1_WR_ALLOC_R][HIT_RESERVED] = 0
	Total_core_cache_stats_breakdown[L1_WR_ALLOC_R][MISS] = 0
	Total_core_cache_stats_breakdown[L1_WR_ALLOC_R][RESERVATION_FAIL] = 0
	Total_core_cache_stats_breakdown[L2_WR_ALLOC_R][HIT] = 0
	Total_core_cache_stats_breakdown[L2_WR_ALLOC_R][HIT_RESERVED] = 0
	Total_core_cache_stats_breakdown[L2_WR_ALLOC_R][MISS] = 0
	Total_core_cache_stats_breakdown[L2_WR_ALLOC_R][RESERVATION_FAIL] = 0
	Total_core_cache_stats_breakdown[CONST_ACC_R][TOTAL_ACCESS] = 769184
	Total_core_cache_stats_breakdown[INST_ACC_R][TOTAL_ACCESS] = 7740000
Shader 0 warp_id issue ditsribution:
warp_id:
0, 1, 2, 3, 4, 5, 6, 7, 8, 9, 10, 11, 12, 13, 14, 15, 16, 17, 18, 19, 20, 21, 22, 23, 24, 25, 26, 27, 28, 29, 30, 31, 32, 33, 34, 35, 36, 37, 38, 39, 40, 41, 42, 43, 44, 45, 46, 47, 48, 49, 50, 51, 52, 53, 54, 55, 
distro:
9431, 11923, 11930, 11917, 11928, 11917, 11937, 9570, 9466, 11941, 11944, 11934, 11952, 11937, 11956, 9577, 9486, 11946, 11963, 11806, 11818, 11795, 11824, 9503, 9561, 11930, 11963, 11777, 11820, 11766, 11819, 9470, 9556, 11911, 11960, 11766, 11808, 11761, 11815, 9476, 9280, 11590, 11614, 11578, 11613, 11570, 11613, 9274, 9257, 11567, 11593, 11557, 11593, 11579, 11613, 9281, 
gpgpu_n_tot_thrd_icount = 485326208
gpgpu_n_tot_w_icount = 15166444
gpgpu_n_stall_shd_mem = 313512
gpgpu_n_mem_read_local = 0
gpgpu_n_mem_write_local = 0
gpgpu_n_mem_read_global = 346456
gpgpu_n_mem_write_global = 109568
gpgpu_n_mem_texture = 0
gpgpu_n_mem_const = 56
gpgpu_n_load_insn  = 3720992
gpgpu_n_store_insn = 1048576
gpgpu_n_shmem_insn = 24940324
gpgpu_n_tex_insn = 0
gpgpu_n_const_mem_insn = 0
gpgpu_n_param_mem_insn = 24613888
gpgpu_n_shmem_bkconflict = 0
gpgpu_n_cache_bkconflict = 0
gpgpu_n_intrawarp_mshr_merge = 0
gpgpu_n_cmem_portconflict = 4886
gpgpu_stall_shd_mem[c_mem][bk_conf] = 4886
gpgpu_stall_shd_mem[c_mem][mshr_rc] = 0
gpgpu_stall_shd_mem[c_mem][icnt_rc] = 0
gpgpu_stall_shd_mem[c_mem][data_port_stall] = 0
gpgpu_stall_shd_mem[t_mem][mshr_rc] = 0
gpgpu_stall_shd_mem[t_mem][icnt_rc] = 0
gpgpu_stall_shd_mem[t_mem][data_port_stall] = 0
gpgpu_stall_shd_mem[s_mem][bk_conf] = 0
gpgpu_stall_shd_mem[gl_mem][bk_conf] = 0
gpgpu_stall_shd_mem[gl_mem][coal_stall] = 307000
gpgpu_stall_shd_mem[gl_mem][data_port_stall] = 0
gpgpu_stall_shd_mem[g_mem_ld][mshr_rc] = 0
gpgpu_stall_shd_mem[g_mem_ld][icnt_rc] = 1626
gpgpu_stall_shd_mem[g_mem_ld][wb_icnt_rc] = 0
gpgpu_stall_shd_mem[g_mem_ld][wb_rsrv_fail] = 0
gpgpu_stall_shd_mem[g_mem_st][mshr_rc] = 0
gpgpu_stall_shd_mem[g_mem_st][icnt_rc] = 0
gpgpu_stall_shd_mem[g_mem_st][wb_icnt_rc] = 0
gpgpu_stall_shd_mem[g_mem_st][wb_rsrv_fail] = 0
gpgpu_stall_shd_mem[l_mem_ld][mshr_rc] = 0
gpgpu_stall_shd_mem[l_mem_ld][icnt_rc] = 0
gpgpu_stall_shd_mem[l_mem_ld][wb_icnt_rc] = 0
gpgpu_stall_shd_mem[l_mem_ld][wb_rsrv_fail] = 0
gpgpu_stall_shd_mem[l_mem_st][mshr_rc] = 0
gpgpu_stall_shd_mem[l_mem_st][icnt_rc] = 0
gpgpu_stall_shd_mem[l_mem_ld][wb_icnt_rc] = 0
gpgpu_stall_shd_mem[l_mem_ld][wb_rsrv_fail] = 0
gpu_reg_bank_conflict_stalls = 0
Warp Occupancy Distribution:
Stall:624523	W0_Idle:172409442	W0_Scoreboard:263929594	W1:0	W2:0	W3:0	W4:0	W5:8500	W6:0	W7:0	W8:28160	W9:0	W10:25600	W11:0	W12:12958	W13:8500	W14:714000	W15:0	W16:0	W17:0	W18:0	W19:0	W20:0	W21:0	W22:0	W23:0	W24:3517792	W25:0	W26:25600	W27:0	W28:3287550	W29:0	W30:0	W31:0	W32:7537784
traffic_breakdown_coretomem[CONST_ACC_R] = 448 {8:56,}
traffic_breakdown_coretomem[GLOBAL_ACC_R] = 2771648 {8:346456,}
traffic_breakdown_coretomem[GLOBAL_ACC_W] = 7856128 {40:44032,72:44032,136:21504,}
traffic_breakdown_coretomem[INST_ACC_R] = 2912 {8:364,}
traffic_breakdown_memtocore[CONST_ACC_R] = 4032 {72:56,}
traffic_breakdown_memtocore[GLOBAL_ACC_R] = 28785856 {40:114576,72:114576,136:117304,}
traffic_breakdown_memtocore[GLOBAL_ACC_W] = 876544 {8:109568,}
traffic_breakdown_memtocore[INST_ACC_R] = 49504 {136:364,}
maxmrqlatency = 148 
maxdqlatency = 0 
maxmflatency = 98987 
averagemflatency = 36589 
max_icnt2mem_latency = 98724 
max_icnt2sh_latency = 8252665 
mrq_lat_table:94365 	7847 	6065 	23295 	41709 	28026 	5098 	122 	0 	0 	0 	0 	0 	0 	0 	0 	0 	0 	0 	0 	0 	0 	0 	0 	0 	0 	0 	0 	0 	0 	0 	0 	
dq_lat_table:0 	0 	0 	0 	0 	0 	0 	0 	0 	0 	0 	0 	0 	0 	0 	0 	0 	0 	0 	0 	0 	0 	0 	0 	0 	0 	0 	0 	0 	0 	0 	0 	
mf_lat_table:0 	0 	0 	0 	0 	0 	0 	106858 	31342 	0 	0 	5187 	10028 	21098 	39701 	173092 	68774 	0 	0 	0 	0 	0 	0 	0 	0 	0 	0 	0 	0 	0 	0 	0 	
icnt2mem_lat_table:0 	0 	108994 	16044 	2901 	32 	10494 	99 	0 	0 	318 	4869 	10028 	21100 	39718 	173141 	68706 	0 	0 	0 	0 	0 	0 	0 	
icnt2sh_lat_table:0 	0 	123973 	202961 	19558 	20 	0 	0 	0 	0 	0 	0 	0 	0 	0 	0 	0 	0 	3852 	5136 	15408 	29532 	55640 	0 	
mf_lat_pw_table:0 	0 	0 	0 	0 	0 	0 	137 	30 	27 	12 	11 	90 	126 	322 	1846 	862 	0 	0 	0 	0 	0 	0 	0 	0 	0 	0 	0 	0 	0 	0 	0 	
maximum concurrent accesses to same row:
dram[0]:        69        70        69        70        69        70        69        70        69        70        69        70        69        70        69        70 
dram[1]:        69        70        69        70        69        70        69        70        69        70        69        70        69        70        69        70 
dram[2]:        69        70        69        70        69        70        69        70        69        70        69        70        69        70        69        70 
dram[3]:        69        70        69        70        69        70        69        70        69        70        69        70        69        70        69        70 
dram[4]:        69        70        69        70        69        70        69        70        69        70        69        70        69        70        69        70 
dram[5]:        69        70        69        70        69        70        69        70        69        70        69        70        69        70        69        70 
dram[6]:        69        70        69        70        69        70        69        70        69        70        69        70        69        70        69        70 
dram[7]:        69        70        69        70        69        70        69        70        69        70        69        70        69        70        69        70 
dram[8]:        69        70        69        70        69        70        69        70        69        70        69        70        69        70        69        70 
dram[9]:        69        70        69        70        69        70        69        70        69        70        69        70        69        70        69        70 
dram[10]:        69        70        69        70        69        70        69        70        69        70        69        70        69        70        69        70 
maximum service time to same row:
dram[0]:    407245    407244    404131    404129    401525    396823    409850    409850    406732    406732    412455    412456    407246    407241    433429    433429 
dram[1]:    407245    407244    397031    404132    401527    396822    396317    409849    406733    406733    412457    412454    407248    407239    433429    433431 
dram[2]:    407245    407244    386609    404128    401525    396823    396316    396316    406733    406733    412457    412456    407247    407242    433430    433430 
dram[3]:    407245    407244    402238    397029    401524    396822    396316    396316    406734    406732    412455    412456    407247    407241    433431    433429 
dram[4]:    407245    407244    404130    386607    401526    391103    396317    407244    406734    406732    412457    412454    407250    407239    433430    433431 
dram[5]:    407244    407244    404129    402241    401526    396825    409852    409853    406734    406736    412457    412457    407249    407242    433427    433429 
dram[6]:    407245    407245    404128    404127    401527    396824    409854    409854    406733    406733    412457    412457    407248    407242    328996    339221 
dram[7]:    407245    407245    386100    404127    401527    396824    396321    396321    406736    406732    412458    412456    407249    407241    339224    339222 
dram[8]:    407246    407244    399637    389216    401529    396825    396315    396317    406733    406735    412458    412456    407248    407242    339222    383290 
dram[9]:    407245    407245    404127    386128    401526    396824    396827    396829    406737    406737    412456    412458    407246    407242    396318    383291 
dram[10]:    407246    407247    404128    399637    401527    341816    396318    409856    406742    406737    412457    412459    407247    407244    406736    433430 
average row accesses per activate:
dram[0]: 19.689655 20.175438 22.799999 21.735849 18.451612 17.968750 19.850000 19.241936 21.636364 21.672728 18.903225 18.092308 24.770834 22.603773 18.873016 18.968254 
dram[1]: 19.655172 18.269842 21.148148 20.945454 20.763636 19.827587 20.894737 20.186441 21.267857 20.964912 18.296875 16.619719 23.840000 22.603773 19.816668 19.557377 
dram[2]: 21.055555 18.852459 21.942308 21.314816 19.066668 17.723078 20.186441 20.947369 22.490566 20.947369 18.634920 18.406250 22.903847 21.464285 20.894737 18.593750 
dram[3]: 20.672728 18.467741 21.129629 20.535715 19.100000 18.301588 19.866667 21.709091 21.600000 21.303572 18.107693 17.338236 22.961538 23.607843 19.193548 18.920635 
dram[4]: 19.620689 19.100000 22.799999 19.810345 19.741379 17.223881 19.850000 20.947369 22.055555 21.375000 19.583334 18.390625 23.392157 23.115385 19.209677 17.850746 
dram[5]: 18.672131 19.491526 20.709091 20.909090 19.389830 17.968750 20.894737 20.929825 22.923077 20.947369 19.245901 18.092308 22.884615 22.166666 19.866667 18.151516 
dram[6]: 19.672413 19.166666 22.372549 20.571428 20.105263 19.593220 20.894737 22.092592 21.285715 22.092592 18.603174 17.352942 24.346939 21.763636 19.193548 20.288136 
dram[7]: 20.303572 17.968750 21.528301 22.134615 19.758621 19.233334 22.055555 21.285715 22.509434 21.321428 19.245901 18.138462 23.352942 22.240740 20.894737 19.225807 
dram[8]: 21.471699 19.457626 20.339285 20.192982 18.483871 18.062500 22.055555 23.860001 21.600000 22.074074 18.714285 18.138462 23.372549 23.153847 20.186441 19.850000 
dram[9]: 20.339285 17.906250 22.820000 20.535715 19.150000 18.333334 21.285715 21.690908 22.000000 20.237288 19.245901 18.390625 23.392157 24.059999 19.850000 18.984127 
dram[10]: 19.305084 20.140350 21.509434 19.827587 20.122807 18.078125 20.877193 24.367348 22.903847 21.375000 19.566668 17.294117 23.840000 23.509804 20.551723 18.671875 
average row locality = 206527/10173 = 20.301485
number of total memory accesses made:
dram[0]:         0         0         0         0         0         0         0         0         0         0         0         0         0         0         0         0 
dram[1]:         0         0         0         0         0         0         0         0         0         0         0         0         0         0         0         0 
dram[2]:         0         0         0         0         0         0         0         0         0         0         0         0         0         0         0         0 
dram[3]:         0         0         0         0         0         0         0         0         0         0         0         0         0         0         0         0 
dram[4]:         0         0         0         0         0         0         0         0         0         0         0         0         0         0         0         0 
dram[5]:         0         0         0         0         0         0         0         0         0         0         0         0         0         0         0         0 
dram[6]:         0         0         0         0         0         0         0         0         0         0         0         0         0         0         0         0 
dram[7]:         0         0         0         0         0         0         0         0         0         0         0         0         0         0         0         0 
dram[8]:         0         0         0         0         0         0         0         0         0         0         0         0         0         0         0         0 
dram[9]:         0         0         0         0         0         0         0         0         0         0         0         0         0         0         0         0 
dram[10]:         0         0         0         0         0         0         0         0         0         0         0         0         0         0         0         0 
total accesses: 0
min_bank_accesses = 0!
min_chip_accesses = 0!
number of total read accesses:
dram[0]:       561       560       560       560       560       560       560       560       560       560       548       548       560       560       560       560 
dram[1]:       560       560       560       560       560       560       560       560       560       560       549       549       560       560       560       560 
dram[2]:       560       560       560       560       560       560       560       560       560       560       549       549       560       560       560       560 
dram[3]:       560       560       560       560       560       560       560       560       560       560       549       549       560       560       560       560 
dram[4]:       560       560       560       560       560       560       560       560       560       560       549       549       560       560       561       561 
dram[5]:       560       560       560       560       560       560       560       560       560       560       548       548       560       560       561       561 
dram[6]:       560       560       560       560       560       560       560       560       560       560       548       548       560       560       561       561 
dram[7]:       560       560       560       560       560       560       560       560       560       560       548       548       560       560       561       561 
dram[8]:       560       560       560       560       560       560       560       560       560       560       548       548       560       560       561       561 
dram[9]:       560       560       560       560       560       560       560       560       560       560       548       548       560       560       561       561 
dram[10]:       560       560       560       560       560       560       560       560       560       560       548       548       560       560       561       560 
total reads: 98318
bank skew: 561/548 = 1.02
chip skew: 8940/8937 = 1.00
number of total write accesses:
dram[0]:       581       590       580       592       584       590       631       633       630       632       624       628       629       638       629       635 
dram[1]:       580       591       582       592       582       590       631       631       631       635       622       631       632       638       629       633 
dram[2]:       577       590       581       591       584       592       631       634       632       634       625       629       631       642       631       630 
dram[3]:       577       585       581       590       586       593       632       634       628       633       628       630       634       644       630       632 
dram[4]:       578       586       580       589       585       594       631       634       631       637       626       628       633       642       630       635 
dram[5]:       579       590       579       590       584       590       631       633       632       634       626       628       630       637       631       637 
dram[6]:       581       590       581       592       586       596       631       633       632       633       624       632       633       637       629       636 
dram[7]:       577       590       581       591       586       594       631       632       633       634       626       631       631       641       630       631 
dram[8]:       578       588       579       591       586       596       631       633       628       632       631       631       632       644       630       630 
dram[9]:       579       586       581       590       589       595       632       633       628       634       626       629       633       643       630       635 
dram[10]:       579       588       580       590       587       597       630       634       631       637       626       628       632       639       631       635 
total reads: 108209
bank skew: 644/577 = 1.12
chip skew: 9846/9826 = 1.00
average mf latency per bank:
dram[0]:      88878     88400     87903     87403     79554     78761     82773     82793     76515     76761     74093     73118     80463     79963     78935     78711
dram[1]:      89267     88530     88867     88432     78914     78300     82336     82538     77515     77540     73387     72514     80443     80278     78516     77987
dram[2]:      89461     88769     88613     88132     79206     78271     82034     81785     78284     78031     72124     71450     81321     80991     77803     77395
dram[3]:      90101     89253     88552     87953     79479     78662     81827     81697     78497     78462     72291     71844     81489     81015     76588     76772
dram[4]:      90355     89449     87193     85958     79748     79478     81814     81865     78324     77733     72777     72964     81575     81061     76797     76783
dram[5]:      90006     89647     86489     85752     80777     79860     81815     81759     78144     78124     73676     73414     81717     81332     76533     75953
dram[6]:      88801     87887     87345     87010     80144     79109     82199     82131     78096     78029     73489     72492     81889     82339     76735     76075
dram[7]:      89084     88456     88215     87650     78695     77700     82006     81917     78453     78482     72953     72364     82009     81266     76736     76822
dram[8]:      88800     88147     88446     87870     79062     78203     82075     81764     77829     76957     72813     72734     82133     81586     77054     77206
dram[9]:      89670     89336     88087     86912     78453     77694     81945     82370     76953     76514     74179     73809     81304     80606     77149     77327
dram[10]:      89187     88448     87582     87185     78957     78515     82305     82042     75508     74845     74672     74461     80978     80560     78100     77950
maximum mf latency per bank:
dram[0]:      98963     98973     98987     98981     98962     98965     98963     98963     93758     93762     93776     93777     93757     93762     93772     93771
dram[1]:      98969     98967     98973     98976     98962     98963     98963     98967     93765     93757     93768     93775     93760     93759     93770     93777
dram[2]:      98972     98966     98984     98982     98963     98965     98963     98963     93764     93759     93770     93770     93756     93768     93776     93773
dram[3]:      98964     98970     98986     98982     98963     98963     98963     98963     93763     93769     93771     93774     93765     93763     93778     93769
dram[4]:      98970     98973     98976     98985     98962     98967     98969     98967     93764     93761     93773     93770     93765     93758     93770     93785
dram[5]:      98969     98968     98976     98977     98963     98970     96359     96359     93765     93772     93770     93762     93770     93763     93767     93776
dram[6]:      98968     98971     98978     98979     98964     98967     96359     96359     93769     93762     93766     93771     93770     93763     93765     93768
dram[7]:      98967     98968     98982     98982     98968     98968     96359     96363     93765     93765     93764     93766     93765     93766     93773     93766
dram[8]:      98964     98967     98979     98982     98964     98966     96359     96359     93768     93759     93766     93769     93762     93762     93771     93768
dram[9]:      98961     98970     98976     98976     98969     98967     98954     98961     93755     93757     93765     93765     93762     93762     93765     93774
dram[10]:      98962     98971     98980     98973     98963     98965     98963     98963     93755     93758     93772     93775     93758     93760     93769     93772
Memory Partition 0: 
Cache L2_bank_000:
MSHR contents

Cache L2_bank_001:
MSHR contents

In Dram Latency Queue (total = 0): 
DRAM[0]: 16 bks, busW=4 BL=8 CL=12, tRRD=2 tCCD=6, tRCD=12 tRAS=28 tRP=12 tRC=40
n_cmd=14911490 n_nop=14854168 n_act=931 n_pre=915 n_req=18763 n_rd=35748 n_write=19728 bw_util=0.007441
n_activity=187126 dram_eff=0.5929
bk0: 2244a 14897009i bk1: 2240a 14894110i bk2: 2240a 14897341i bk3: 2240a 14894109i bk4: 2240a 14897041i bk5: 2240a 14893922i bk6: 2240a 14896694i bk7: 2240a 14893645i bk8: 2240a 14896590i bk9: 2240a 14893662i bk10: 2192a 14896399i bk11: 2192a 14893505i bk12: 2240a 14896912i bk13: 2240a 14893356i bk14: 2240a 14896235i bk15: 2240a 14893218i 
dram_util_bins: 0 0 0 0 0 0 0 0 0 0
dram_eff_bins: 0 0 0 0 0 0 0 0 0 0
mrqq: max=29 avg=0.0340501
Memory Partition 1: 
Cache L2_bank_002:
MSHR contents

Cache L2_bank_003:
MSHR contents

In Dram Latency Queue (total = 0): 
DRAM[1]: 16 bks, busW=4 BL=8 CL=12, tRRD=2 tCCD=6, tRCD=12 tRAS=28 tRP=12 tRC=40
n_cmd=14911490 n_nop=14854127 n_act=931 n_pre=915 n_req=18768 n_rd=35752 n_write=19765 bw_util=0.007446
n_activity=187900 dram_eff=0.5909
bk0: 2240a 14897029i bk1: 2240a 14894042i bk2: 2240a 14897158i bk3: 2240a 14894221i bk4: 2240a 14897050i bk5: 2240a 14894074i bk6: 2240a 14896547i bk7: 2240a 14893652i bk8: 2240a 14896215i bk9: 2240a 14893601i bk10: 2196a 14896257i bk11: 2196a 14893401i bk12: 2240a 14896336i bk13: 2240a 14893059i bk14: 2240a 14896167i bk15: 2240a 14893072i 
dram_util_bins: 0 0 0 0 0 0 0 0 0 0
dram_eff_bins: 0 0 0 0 0 0 0 0 0 0
mrqq: max=32 avg=0.0336394
Memory Partition 2: 
Cache L2_bank_004:
MSHR contents

Cache L2_bank_005:
MSHR contents

In Dram Latency Queue (total = 0): 
DRAM[2]: 16 bks, busW=4 BL=8 CL=12, tRRD=2 tCCD=6, tRCD=12 tRAS=28 tRP=12 tRC=40
n_cmd=14911490 n_nop=14854133 n_act=928 n_pre=912 n_req=18772 n_rd=35752 n_write=19765 bw_util=0.007446
n_activity=187552 dram_eff=0.592
bk0: 2240a 14897055i bk1: 2240a 14893965i bk2: 2240a 14897278i bk3: 2240a 14894201i bk4: 2240a 14897172i bk5: 2240a 14893968i bk6: 2240a 14896354i bk7: 2240a 14893626i bk8: 2240a 14896571i bk9: 2240a 14893598i bk10: 2196a 14896297i bk11: 2196a 14893426i bk12: 2240a 14896377i bk13: 2240a 14893133i bk14: 2240a 14895986i bk15: 2240a 14892846i 
dram_util_bins: 0 0 0 0 0 0 0 0 0 0
dram_eff_bins: 0 0 0 0 0 0 0 0 0 0
mrqq: max=28 avg=0.0334951
Memory Partition 3: 
Cache L2_bank_006:
MSHR contents

Cache L2_bank_007:
MSHR contents

In Dram Latency Queue (total = 0): 
DRAM[3]: 16 bks, busW=4 BL=8 CL=12, tRRD=2 tCCD=6, tRCD=12 tRAS=28 tRP=12 tRC=40
n_cmd=14911490 n_nop=14854126 n_act=937 n_pre=921 n_req=18775 n_rd=35752 n_write=19754 bw_util=0.007445
n_activity=187419 dram_eff=0.5923
bk0: 2240a 14896934i bk1: 2240a 14893781i bk2: 2240a 14897242i bk3: 2240a 14894043i bk4: 2240a 14896845i bk5: 2240a 14893854i bk6: 2240a 14896294i bk7: 2240a 14893623i bk8: 2240a 14896599i bk9: 2240a 14893455i bk10: 2196a 14896119i bk11: 2196a 14893432i bk12: 2240a 14896587i bk13: 2240a 14893341i bk14: 2240a 14895994i bk15: 2240a 14892824i 
dram_util_bins: 0 0 0 0 0 0 0 0 0 0
dram_eff_bins: 0 0 0 0 0 0 0 0 0 0
mrqq: max=32 avg=0.033591
Memory Partition 4: 
Cache L2_bank_008:
MSHR contents

Cache L2_bank_009:
MSHR contents

In Dram Latency Queue (total = 0): 
DRAM[4]: 16 bks, busW=4 BL=8 CL=12, tRRD=2 tCCD=6, tRCD=12 tRAS=28 tRP=12 tRC=40
n_cmd=14911490 n_nop=14854119 n_act=934 n_pre=918 n_req=18779 n_rd=35760 n_write=19759 bw_util=0.007446
n_activity=187812 dram_eff=0.5912
bk0: 2240a 14896721i bk1: 2240a 14893742i bk2: 2240a 14897231i bk3: 2240a 14894002i bk4: 2240a 14897012i bk5: 2240a 14893843i bk6: 2240a 14896563i bk7: 2240a 14893713i bk8: 2240a 14896498i bk9: 2240a 14893346i bk10: 2196a 14896385i bk11: 2196a 14893488i bk12: 2240a 14896772i bk13: 2240a 14893529i bk14: 2244a 14895974i bk15: 2244a 14892880i 
dram_util_bins: 0 0 0 0 0 0 0 0 0 0
dram_eff_bins: 0 0 0 0 0 0 0 0 0 0
mrqq: max=34 avg=0.0337967
Memory Partition 5: 
Cache L2_bank_010:
MSHR contents

Cache L2_bank_011:
MSHR contents

In Dram Latency Queue (total = 0): 
DRAM[5]: 16 bks, busW=4 BL=8 CL=12, tRRD=2 tCCD=6, tRCD=12 tRAS=28 tRP=12 tRC=40
n_cmd=14911490 n_nop=14854129 n_act=934 n_pre=918 n_req=18769 n_rd=35752 n_write=19757 bw_util=0.007445
n_activity=187662 dram_eff=0.5916
bk0: 2240a 14896767i bk1: 2240a 14893872i bk2: 2240a 14897150i bk3: 2240a 14894164i bk4: 2240a 14897419i bk5: 2240a 14894249i bk6: 2240a 14896575i bk7: 2240a 14893762i bk8: 2240a 14896501i bk9: 2240a 14893493i bk10: 2192a 14896451i bk11: 2192a 14893468i bk12: 2240a 14896838i bk13: 2240a 14893602i bk14: 2244a 14896300i bk15: 2244a 14893127i 
dram_util_bins: 0 0 0 0 0 0 0 0 0 0
dram_eff_bins: 0 0 0 0 0 0 0 0 0 0
mrqq: max=37 avg=0.0338495
Memory Partition 6: 
Cache L2_bank_012:
MSHR contents

Cache L2_bank_013:
MSHR contents

In Dram Latency Queue (total = 0): 
DRAM[6]: 16 bks, busW=4 BL=8 CL=12, tRRD=2 tCCD=6, tRCD=12 tRAS=28 tRP=12 tRC=40
n_cmd=14911490 n_nop=14854144 n_act=918 n_pre=902 n_req=18784 n_rd=35752 n_write=19774 bw_util=0.007447
n_activity=187935 dram_eff=0.5909
bk0: 2240a 14896941i bk1: 2240a 14893915i bk2: 2240a 14897398i bk3: 2240a 14894141i bk4: 2240a 14896938i bk5: 2240a 14894106i bk6: 2240a 14896761i bk7: 2240a 14893615i bk8: 2240a 14896368i bk9: 2240a 14893616i bk10: 2192a 14896465i bk11: 2192a 14893494i bk12: 2240a 14896501i bk13: 2240a 14893136i bk14: 2244a 14895961i bk15: 2244a 14893007i 
dram_util_bins: 0 0 0 0 0 0 0 0 0 0
dram_eff_bins: 0 0 0 0 0 0 0 0 0 0
mrqq: max=33 avg=0.0330406
Memory Partition 7: 
Cache L2_bank_014:
MSHR contents

Cache L2_bank_015:
MSHR contents

In Dram Latency Queue (total = 0): 
DRAM[7]: 16 bks, busW=4 BL=8 CL=12, tRRD=2 tCCD=6, tRCD=12 tRAS=28 tRP=12 tRC=40
n_cmd=14911490 n_nop=14854162 n_act=912 n_pre=896 n_req=18777 n_rd=35752 n_write=19768 bw_util=0.007447
n_activity=188036 dram_eff=0.5905
bk0: 2240a 14896999i bk1: 2240a 14893902i bk2: 2240a 14897314i bk3: 2240a 14894150i bk4: 2240a 14896974i bk5: 2240a 14893938i bk6: 2240a 14896793i bk7: 2240a 14893685i bk8: 2240a 14896648i bk9: 2240a 14893700i bk10: 2192a 14896284i bk11: 2192a 14893488i bk12: 2240a 14896490i bk13: 2240a 14893253i bk14: 2244a 14895928i bk15: 2244a 14892872i 
dram_util_bins: 0 0 0 0 0 0 0 0 0 0
dram_eff_bins: 0 0 0 0 0 0 0 0 0 0
mrqq: max=33 avg=0.0329716
Memory Partition 8: 
Cache L2_bank_016:
MSHR contents

Cache L2_bank_017:
MSHR contents

In Dram Latency Queue (total = 0): 
DRAM[8]: 16 bks, busW=4 BL=8 CL=12, tRRD=2 tCCD=6, tRCD=12 tRAS=28 tRP=12 tRC=40
n_cmd=14911490 n_nop=14854152 n_act=914 n_pre=898 n_req=18778 n_rd=35752 n_write=19774 bw_util=0.007447
n_activity=187807 dram_eff=0.5913
bk0: 2240a 14896942i bk1: 2240a 14894181i bk2: 2240a 14897251i bk3: 2240a 14894240i bk4: 2240a 14896789i bk5: 2240a 14893964i bk6: 2240a 14896441i bk7: 2240a 14893697i bk8: 2240a 14896498i bk9: 2240a 14893659i bk10: 2192a 14896104i bk11: 2192a 14893570i bk12: 2240a 14896461i bk13: 2240a 14893497i bk14: 2244a 14895899i bk15: 2244a 14892865i 
dram_util_bins: 0 0 0 0 0 0 0 0 0 0
dram_eff_bins: 0 0 0 0 0 0 0 0 0 0
mrqq: max=35 avg=0.0330705
Memory Partition 9: 
Cache L2_bank_018:
MSHR contents

Cache L2_bank_019:
MSHR contents

In Dram Latency Queue (total = 0): 
DRAM[9]: 16 bks, busW=4 BL=8 CL=12, tRRD=2 tCCD=6, tRCD=12 tRAS=28 tRP=12 tRC=40
n_cmd=14911490 n_nop=14854140 n_act=922 n_pre=906 n_req=18781 n_rd=35752 n_write=19770 bw_util=0.007447
n_activity=188586 dram_eff=0.5888
bk0: 2240a 14897012i bk1: 2240a 14893861i bk2: 2240a 14897204i bk3: 2240a 14894252i bk4: 2240a 14896672i bk5: 2240a 14893860i bk6: 2240a 14896524i bk7: 2240a 14893675i bk8: 2240a 14896603i bk9: 2240a 14893333i bk10: 2192a 14896474i bk11: 2192a 14893706i bk12: 2240a 14896727i bk13: 2240a 14893297i bk14: 2244a 14895997i bk15: 2244a 14893142i 
dram_util_bins: 0 0 0 0 0 0 0 0 0 0
dram_eff_bins: 0 0 0 0 0 0 0 0 0 0
mrqq: max=33 avg=0.0329119
Memory Partition 10: 
Cache L2_bank_020:
MSHR contents

Cache L2_bank_021:
MSHR contents

In Dram Latency Queue (total = 0): 
DRAM[10]: 16 bks, busW=4 BL=8 CL=12, tRRD=2 tCCD=6, tRCD=12 tRAS=28 tRP=12 tRC=40
n_cmd=14911490 n_nop=14854166 n_act=913 n_pre=897 n_req=18781 n_rd=35748 n_write=19766 bw_util=0.007446
n_activity=187810 dram_eff=0.5912
bk0: 2240a 14896880i bk1: 2240a 14893831i bk2: 2240a 14897363i bk3: 2240a 14894348i bk4: 2240a 14897230i bk5: 2240a 14894137i bk6: 2240a 14896510i bk7: 2240a 14893964i bk8: 2240a 14896533i bk9: 2240a 14893318i bk10: 2192a 14896379i bk11: 2192a 14893343i bk12: 2240a 14896742i bk13: 2240a 14893720i bk14: 2244a 14896085i bk15: 2240a 14893260i 
dram_util_bins: 0 0 0 0 0 0 0 0 0 0
dram_eff_bins: 0 0 0 0 0 0 0 0 0 0
mrqq: max=32 avg=0.0335424

========= L2 cache stats =========
L2_cache_bank[0]: Access = 20620, Miss = 4469, Miss_rate = 0.217, Pending_hits = 13223, Reservation_fails = 0
L2_cache_bank[1]: Access = 20905, Miss = 4468, Miss_rate = 0.214, Pending_hits = 13389, Reservation_fails = 2
L2_cache_bank[2]: Access = 20570, Miss = 4469, Miss_rate = 0.217, Pending_hits = 13207, Reservation_fails = 2
L2_cache_bank[3]: Access = 20910, Miss = 4469, Miss_rate = 0.214, Pending_hits = 13387, Reservation_fails = 1
L2_cache_bank[4]: Access = 20562, Miss = 4469, Miss_rate = 0.217, Pending_hits = 13207, Reservation_fails = 0
L2_cache_bank[5]: Access = 20901, Miss = 4469, Miss_rate = 0.214, Pending_hits = 13384, Reservation_fails = 0
L2_cache_bank[6]: Access = 20556, Miss = 4469, Miss_rate = 0.217, Pending_hits = 13226, Reservation_fails = 1
L2_cache_bank[7]: Access = 20897, Miss = 4469, Miss_rate = 0.214, Pending_hits = 13392, Reservation_fails = 0
L2_cache_bank[8]: Access = 20582, Miss = 4470, Miss_rate = 0.217, Pending_hits = 13244, Reservation_fails = 3
L2_cache_bank[9]: Access = 20926, Miss = 4470, Miss_rate = 0.214, Pending_hits = 13410, Reservation_fails = 0
L2_cache_bank[10]: Access = 20583, Miss = 4469, Miss_rate = 0.217, Pending_hits = 13240, Reservation_fails = 2
L2_cache_bank[11]: Access = 20925, Miss = 4469, Miss_rate = 0.214, Pending_hits = 13420, Reservation_fails = 2
L2_cache_bank[12]: Access = 20590, Miss = 4469, Miss_rate = 0.217, Pending_hits = 13246, Reservation_fails = 1
L2_cache_bank[13]: Access = 20929, Miss = 4469, Miss_rate = 0.214, Pending_hits = 13414, Reservation_fails = 0
L2_cache_bank[14]: Access = 20586, Miss = 4469, Miss_rate = 0.217, Pending_hits = 13225, Reservation_fails = 1
L2_cache_bank[15]: Access = 20925, Miss = 4469, Miss_rate = 0.214, Pending_hits = 13419, Reservation_fails = 0
L2_cache_bank[16]: Access = 20580, Miss = 4469, Miss_rate = 0.217, Pending_hits = 13228, Reservation_fails = 2
[...]
F:  7779047----T:  7781652 	 St: c03c8000 Sz: 4096 	 Sm: 0 	 T: memcpy_h2d(1.758947)
F:  7781652----T:  7784257 	 St: c03c9000 Sz: 4096 	 Sm: 0 	 T: memcpy_h2d(1.758947)
F:  7784257----T:  7786862 	 St: c03cc000 Sz: 4096 	 Sm: 0 	 T: memcpy_h2d(1.758947)
F:  7786862----T:  7789467 	 St: c03cd000 Sz: 4096 	 Sm: 0 	 T: memcpy_h2d(1.758947)
F:  7789467----T:  7792072 	 St: c03ce000 Sz: 4096 	 Sm: 0 	 T: memcpy_h2d(1.758947)
F:  7792072----T:  7794677 	 St: c03cf000 Sz: 4096 	 Sm: 0 	 T: memcpy_h2d(1.758947)
F:  7794677----T:  7797282 	 St: c03d2000 Sz: 4096 	 Sm: 0 	 T: memcpy_h2d(1.758947)
F:  7797282----T:  7799887 	 St: c03d3000 Sz: 4096 	 Sm: 0 	 T: memcpy_h2d(1.758947)
F:  7799887----T:  7802492 	 St: c03d6000 Sz: 4096 	 Sm: 0 	 T: memcpy_h2d(1.758947)
F:  7802492----T:  7805097 	 St: c03d7000 Sz: 4096 	 Sm: 0 	 T: memcpy_h2d(1.758947)
F:  7805097----T:  7807702 	 St: c03d0000 Sz: 4096 	 Sm: 0 	 T: memcpy_h2d(1.758947)
F:  7807702----T:  7810307 	 St: c03d1000 Sz: 4096 	 Sm: 0 	 T: memcpy_h2d(1.758947)
F:  7810307----T:  7812912 	 St: c03d4000 Sz: 4096 	 Sm: 0 	 T: memcpy_h2d(1.758947)
F:  7812912----T:  7815517 	 St: c03d5000 Sz: 4096 	 Sm: 0 	 T: memcpy_h2d(1.758947)
F:  7815517----T:  7818122 	 St: c03d8000 Sz: 4096 	 Sm: 0 	 T: memcpy_h2d(1.758947)
F:  7818122----T:  7820727 	 St: c03d9000 Sz: 4096 	 Sm: 0 	 T: memcpy_h2d(1.758947)
F:  7820727----T:  7823332 	 St: c03da000 Sz: 4096 	 Sm: 0 	 T: memcpy_h2d(1.758947)
F:  7823332----T:  7825937 	 St: c03db000 Sz: 4096 	 Sm: 0 	 T: memcpy_h2d(1.758947)
F:  7825937----T:  7828542 	 St: c03de000 Sz: 4096 	 Sm: 0 	 T: memcpy_h2d(1.758947)
F:  7828542----T:  7831147 	 St: c03df000 Sz: 4096 	 Sm: 0 	 T: memcpy_h2d(1.758947)
F:  7831147----T:  7833752 	 St: c03e2000 Sz: 4096 	 Sm: 0 	 T: memcpy_h2d(1.758947)
F:  7833752----T:  7836357 	 St: c03e3000 Sz: 4096 	 Sm: 0 	 T: memcpy_h2d(1.758947)
F:  7836357----T:  7838962 	 St: c03dc000 Sz: 4096 	 Sm: 0 	 T: memcpy_h2d(1.758947)
F:  7838962----T:  7841567 	 St: c03dd000 Sz: 4096 	 Sm: 0 	 T: memcpy_h2d(1.758947)
F:  7841567----T:  7844172 	 St: c03e0000 Sz: 4096 	 Sm: 0 	 T: memcpy_h2d(1.758947)
F:  7844172----T:  7846777 	 St: c03e1000 Sz: 4096 	 Sm: 0 	 T: memcpy_h2d(1.758947)
F:  7846777----T:  7849382 	 St: c03e4000 Sz: 4096 	 Sm: 0 	 T: memcpy_h2d(1.758947)
F:  7849382----T:  7851987 	 St: c03e5000 Sz: 4096 	 Sm: 0 	 T: memcpy_h2d(1.758947)
F:  7851987----T:  7854592 	 St: c0bc2000 Sz: 4096 	 Sm: 0 	 T: memcpy_h2d(1.758947)
F:  7854592----T:  7857197 	 St: c0bc3000 Sz: 4096 	 Sm: 0 	 T: memcpy_h2d(1.758947)
F:  7857197----T:  7859802 	 St: c0bc6000 Sz: 4096 	 Sm: 0 	 T: memcpy_h2d(1.758947)
F:  7859802----T:  7862407 	 St: c0bc7000 Sz: 4096 	 Sm: 0 	 T: memcpy_h2d(1.758947)
F:  7862407----T:  7865012 	 St: c0bca000 Sz: 4096 	 Sm: 0 	 T: memcpy_h2d(1.758947)
F:  7865012----T:  7867617 	 St: c0bcb000 Sz: 4096 	 Sm: 0 	 T: memcpy_h2d(1.758947)
F:  7867617----T:  7870222 	 St: c0bc4000 Sz: 4096 	 Sm: 0 	 T: memcpy_h2d(1.758947)
F:  7870222----T:  7872827 	 St: c0bc5000 Sz: 4096 	 Sm: 0 	 T: memcpy_h2d(1.758947)
F:  7872827----T:  7875432 	 St: c0bc8000 Sz: 4096 	 Sm: 0 	 T: memcpy_h2d(1.758947)
F:  7875432----T:  7878037 	 St: c0bc9000 Sz: 4096 	 Sm: 0 	 T: memcpy_h2d(1.758947)
F:  7878037----T:  7880642 	 St: c0bcc000 Sz: 4096 	 Sm: 0 	 T: memcpy_h2d(1.758947)
F:  7880642----T:  7883247 	 St: c0bcd000 Sz: 4096 	 Sm: 0 	 T: memcpy_h2d(1.758947)
F:  7883247----T:  7885852 	 St: c0bce000 Sz: 4096 	 Sm: 0 	 T: memcpy_h2d(1.758947)
F:  7885852----T:  7888457 	 St: c0bcf000 Sz: 4096 	 Sm: 0 	 T: memcpy_h2d(1.758947)
F:  7888457----T:  7891062 	 St: c0bd2000 Sz: 4096 	 Sm: 0 	 T: memcpy_h2d(1.758947)
F:  7891062----T:  7893667 	 St: c0bd3000 Sz: 4096 	 Sm: 0 	 T: memcpy_h2d(1.758947)
F:  7893667----T:  7896272 	 St: c0bd6000 Sz: 4096 	 Sm: 0 	 T: memcpy_h2d(1.758947)
F:  7896272----T:  7898877 	 St: c0bd7000 Sz: 4096 	 Sm: 0 	 T: memcpy_h2d(1.758947)
F:  7898877----T:  7901482 	 St: c0bd0000 Sz: 4096 	 Sm: 0 	 T: memcpy_h2d(1.758947)
F:  7901482----T:  7904087 	 St: c0bd1000 Sz: 4096 	 Sm: 0 	 T: memcpy_h2d(1.758947)
F:  7904087----T:  7906692 	 St: c0bd4000 Sz: 4096 	 Sm: 0 	 T: memcpy_h2d(1.758947)
F:  7906692----T:  7909297 	 St: c0bd5000 Sz: 4096 	 Sm: 0 	 T: memcpy_h2d(1.758947)
F:  7909297----T:  7911902 	 St: c0bd8000 Sz: 4096 	 Sm: 0 	 T: memcpy_h2d(1.758947)
F:  7911902----T:  7914507 	 St: c0bd9000 Sz: 4096 	 Sm: 0 	 T: memcpy_h2d(1.758947)
F:  7914507----T:  7917112 	 St: c0bda000 Sz: 4096 	 Sm: 0 	 T: memcpy_h2d(1.758947)
F:  7917112----T:  7919717 	 St: c0bdb000 Sz: 4096 	 Sm: 0 	 T: memcpy_h2d(1.758947)
F:  7919717----T:  7922322 	 St: c0bde000 Sz: 4096 	 Sm: 0 	 T: memcpy_h2d(1.758947)
F:  7922322----T:  7924927 	 St: c0bdf000 Sz: 4096 	 Sm: 0 	 T: memcpy_h2d(1.758947)
F:  7924927----T:  7927532 	 St: c0be2000 Sz: 4096 	 Sm: 0 	 T: memcpy_h2d(1.758947)
F:  7927532----T:  7930137 	 St: c0be3000 Sz: 4096 	 Sm: 0 	 T: memcpy_h2d(1.758947)
F:  7930137----T:  7932742 	 St: c0bdc000 Sz: 4096 	 Sm: 0 	 T: memcpy_h2d(1.758947)
F:  7932742----T:  7935347 	 St: c0bdd000 Sz: 4096 	 Sm: 0 	 T: memcpy_h2d(1.758947)
F:  7935347----T:  7937952 	 St: c0be0000 Sz: 4096 	 Sm: 0 	 T: memcpy_h2d(1.758947)
F:  7937952----T:  7940557 	 St: c0be1000 Sz: 4096 	 Sm: 0 	 T: memcpy_h2d(1.758947)
F:  7940557----T:  7943162 	 St: c0be4000 Sz: 4096 	 Sm: 0 	 T: memcpy_h2d(1.758947)
F:  7943162----T:  7945767 	 St: c0be5000 Sz: 4096 	 Sm: 0 	 T: memcpy_h2d(1.758947)
F:  7945767----T:  7948372 	 St: c07c2000 Sz: 4096 	 Sm: 0 	 T: memcpy_h2d(1.758947)
F:  7948372----T:  7950977 	 St: c07c3000 Sz: 4096 	 Sm: 0 	 T: memcpy_h2d(1.758947)
F:  7950977----T:  7953582 	 St: c07c0000 Sz: 4096 	 Sm: 0 	 T: memcpy_h2d(1.758947)
F:  7953582----T:  7956187 	 St: c07c1000 Sz: 4096 	 Sm: 0 	 T: memcpy_h2d(1.758947)
F:  7956187----T:  7958792 	 St: c07c4000 Sz: 4096 	 Sm: 0 	 T: memcpy_h2d(1.758947)
F:  7958792----T:  7961397 	 St: c07c5000 Sz: 4096 	 Sm: 0 	 T: memcpy_h2d(1.758947)
F:  7961397----T:  7964002 	 St: c07c6000 Sz: 4096 	 Sm: 0 	 T: memcpy_h2d(1.758947)
F:  7964002----T:  7966607 	 St: c07c7000 Sz: 4096 	 Sm: 0 	 T: memcpy_h2d(1.758947)
F:  7966607----T:  7969212 	 St: c07ca000 Sz: 4096 	 Sm: 0 	 T: memcpy_h2d(1.758947)
F:  7969212----T:  7971817 	 St: c07cb000 Sz: 4096 	 Sm: 0 	 T: memcpy_h2d(1.758947)
F:  7971817----T:  7974422 	 St: c07c8000 Sz: 4096 	 Sm: 0 	 T: memcpy_h2d(1.758947)
F:  7974422----T:  7977027 	 St: c07c9000 Sz: 4096 	 Sm: 0 	 T: memcpy_h2d(1.758947)
F:  7977027----T:  7979632 	 St: c07ce000 Sz: 4096 	 Sm: 0 	 T: memcpy_h2d(1.758947)
F:  7979632----T:  7982237 	 St: c07cf000 Sz: 4096 	 Sm: 0 	 T: memcpy_h2d(1.758947)
F:  7982237----T:  7984842 	 St: c07cc000 Sz: 4096 	 Sm: 0 	 T: memcpy_h2d(1.758947)
F:  7984842----T:  7987447 	 St: c07d0000 Sz: 4096 	 Sm: 0 	 T: memcpy_h2d(1.758947)
F:  7987447----T:  7990052 	 St: c07cd000 Sz: 4096 	 Sm: 0 	 T: memcpy_h2d(1.758947)
F:  7990052----T:  7992657 	 St: c07d1000 Sz: 4096 	 Sm: 0 	 T: memcpy_h2d(1.758947)
F:  7992657----T:  7995262 	 St: c07d2000 Sz: 4096 	 Sm: 0 	 T: memcpy_h2d(1.758947)
F:  7995262----T:  7997867 	 St: c07d3000 Sz: 4096 	 Sm: 0 	 T: memcpy_h2d(1.758947)
F:  7997867----T:  8000472 	 St: c07d4000 Sz: 4096 	 Sm: 0 	 T: memcpy_h2d(1.758947)
F:  8000472----T:  8003077 	 St: c07d5000 Sz: 4096 	 Sm: 0 	 T: memcpy_h2d(1.758947)
F:  8003077----T:  8005682 	 St: c07d6000 Sz: 4096 	 Sm: 0 	 T: memcpy_h2d(1.758947)
F:  8005682----T:  8008287 	 St: c07d7000 Sz: 4096 	 Sm: 0 	 T: memcpy_h2d(1.758947)
F:  8008287----T:  8010892 	 St: c07d8000 Sz: 4096 	 Sm: 0 	 T: memcpy_h2d(1.758947)
F:  8010892----T:  8013497 	 St: c07d9000 Sz: 4096 	 Sm: 0 	 T: memcpy_h2d(1.758947)
F:  8013497----T:  8016102 	 St: c07dc000 Sz: 4096 	 Sm: 0 	 T: memcpy_h2d(1.758947)
F:  8016102----T:  8018707 	 St: c07dd000 Sz: 4096 	 Sm: 0 	 T: memcpy_h2d(1.758947)
F:  8018707----T:  8021312 	 St: c07e0000 Sz: 4096 	 Sm: 0 	 T: memcpy_h2d(1.758947)
F:  8021312----T:  8023917 	 St: c07e1000 Sz: 4096 	 Sm: 0 	 T: memcpy_h2d(1.758947)
F:  8023917----T:  8026522 	 St: c07e2000 Sz: 4096 	 Sm: 0 	 T: memcpy_h2d(1.758947)
F:  8026522----T:  8029127 	 St: c07e3000 Sz: 4096 	 Sm: 0 	 T: memcpy_h2d(1.758947)
F:  8029127----T:  8031732 	 St: c07da000 Sz: 4096 	 Sm: 0 	 T: memcpy_h2d(1.758947)
F:  8031732----T:  8034337 	 St: c07db000 Sz: 4096 	 Sm: 0 	 T: memcpy_h2d(1.758947)
F:  8034337----T:  8036942 	 St: c07de000 Sz: 4096 	 Sm: 0 	 T: memcpy_h2d(1.758947)
F:  8036942----T:  8039547 	 St: c07df000 Sz: 4096 	 Sm: 0 	 T: memcpy_h2d(1.758947)
F:  8040413----T:  8043018 	 St: c03e6000 Sz: 4096 	 Sm: 0 	 T: memcpy_h2d(1.758947)
F:  8043018----T:  8045623 	 St: c03e7000 Sz: 4096 	 Sm: 0 	 T: memcpy_h2d(1.758947)
F:  8045623----T:  8048228 	 St: c03ea000 Sz: 4096 	 Sm: 0 	 T: memcpy_h2d(1.758947)
F:  8048228----T:  8050833 	 St: c03eb000 Sz: 4096 	 Sm: 0 	 T: memcpy_h2d(1.758947)
F:  8050833----T:  8053438 	 St: c03ee000 Sz: 4096 	 Sm: 0 	 T: memcpy_h2d(1.758947)
F:  8053438----T:  8056043 	 St: c03ef000 Sz: 4096 	 Sm: 0 	 T: memcpy_h2d(1.758947)
F:  8056043----T:  8058648 	 St: c03e8000 Sz: 4096 	 Sm: 0 	 T: memcpy_h2d(1.758947)
F:  8058648----T:  8061253 	 St: c03e9000 Sz: 4096 	 Sm: 0 	 T: memcpy_h2d(1.758947)
F:  8061253----T:  8063858 	 St: c03ec000 Sz: 4096 	 Sm: 0 	 T: memcpy_h2d(1.758947)
F:  8063858----T:  8066463 	 St: c03ed000 Sz: 4096 	 Sm: 0 	 T: memcpy_h2d(1.758947)
F:  8066463----T:  8069068 	 St: c03f0000 Sz: 4096 	 Sm: 0 	 T: memcpy_h2d(1.758947)
F:  8069068----T:  8071673 	 St: c03f1000 Sz: 4096 	 Sm: 0 	 T: memcpy_h2d(1.758947)
F:  8071673----T:  8074278 	 St: c03f2000 Sz: 4096 	 Sm: 0 	 T: memcpy_h2d(1.758947)
F:  8074278----T:  8076883 	 St: c03f3000 Sz: 4096 	 Sm: 0 	 T: memcpy_h2d(1.758947)
F:  8076883----T:  8079488 	 St: c03f6000 Sz: 4096 	 Sm: 0 	 T: memcpy_h2d(1.758947)
F:  8079488----T:  8082093 	 St: c03f7000 Sz: 4096 	 Sm: 0 	 T: memcpy_h2d(1.758947)
F:  8082093----T:  8084698 	 St: c03fa000 Sz: 4096 	 Sm: 0 	 T: memcpy_h2d(1.758947)
F:  8084698----T:  8087303 	 St: c03fb000 Sz: 4096 	 Sm: 0 	 T: memcpy_h2d(1.758947)
F:  8087303----T:  8089908 	 St: c03f4000 Sz: 4096 	 Sm: 0 	 T: memcpy_h2d(1.758947)
F:  8089908----T:  8092513 	 St: c03f5000 Sz: 4096 	 Sm: 0 	 T: memcpy_h2d(1.758947)
F:  8092513----T:  8095118 	 St: c03f8000 Sz: 4096 	 Sm: 0 	 T: memcpy_h2d(1.758947)
F:  8095118----T:  8097723 	 St: c03f9000 Sz: 4096 	 Sm: 0 	 T: memcpy_h2d(1.758947)
F:  8097723----T:  8100328 	 St: c03fc000 Sz: 4096 	 Sm: 0 	 T: memcpy_h2d(1.758947)
F:  8100328----T:  8102933 	 St: c03fd000 Sz: 4096 	 Sm: 0 	 T: memcpy_h2d(1.758947)
F:  8102933----T:  8105538 	 St: c0be6000 Sz: 4096 	 Sm: 0 	 T: memcpy_h2d(1.758947)
F:  8105538----T:  8108143 	 St: c0be7000 Sz: 4096 	 Sm: 0 	 T: memcpy_h2d(1.758947)
F:  8108143----T:  8110748 	 St: c0bea000 Sz: 4096 	 Sm: 0 	 T: memcpy_h2d(1.758947)
F:  8110748----T:  8113353 	 St: c0beb000 Sz: 4096 	 Sm: 0 	 T: memcpy_h2d(1.758947)
F:  8113353----T:  8115958 	 St: c0bee000 Sz: 4096 	 Sm: 0 	 T: memcpy_h2d(1.758947)
F:  8115958----T:  8118563 	 St: c0bef000 Sz: 4096 	 Sm: 0 	 T: memcpy_h2d(1.758947)
F:  8118563----T:  8121168 	 St: c0be8000 Sz: 4096 	 Sm: 0 	 T: memcpy_h2d(1.758947)
F:  8121168----T:  8123773 	 St: c0be9000 Sz: 4096 	 Sm: 0 	 T: memcpy_h2d(1.758947)
F:  8123773----T:  8126378 	 St: c0bec000 Sz: 4096 	 Sm: 0 	 T: memcpy_h2d(1.758947)
F:  8126378----T:  8128983 	 St: c0bed000 Sz: 4096 	 Sm: 0 	 T: memcpy_h2d(1.758947)
F:  8128983----T:  8131588 	 St: c0bf0000 Sz: 4096 	 Sm: 0 	 T: memcpy_h2d(1.758947)
F:  8131588----T:  8134193 	 St: c0bf1000 Sz: 4096 	 Sm: 0 	 T: memcpy_h2d(1.758947)
F:  8134193----T:  8136798 	 St: c0bf2000 Sz: 4096 	 Sm: 0 	 T: memcpy_h2d(1.758947)
F:  8136798----T:  8139403 	 St: c0bf3000 Sz: 4096 	 Sm: 0 	 T: memcpy_h2d(1.758947)
F:  8139403----T:  8142008 	 St: c0bf6000 Sz: 4096 	 Sm: 0 	 T: memcpy_h2d(1.758947)
F:  8142008----T:  8144613 	 St: c0bf7000 Sz: 4096 	 Sm: 0 	 T: memcpy_h2d(1.758947)
F:  8144613----T:  8147218 	 St: c0bfa000 Sz: 4096 	 Sm: 0 	 T: memcpy_h2d(1.758947)
F:  8147218----T:  8149823 	 St: c0bfb000 Sz: 4096 	 Sm: 0 	 T: memcpy_h2d(1.758947)
F:  8149823----T:  8152428 	 St: c0bf4000 Sz: 4096 	 Sm: 0 	 T: memcpy_h2d(1.758947)
F:  8152428----T:  8155033 	 St: c0bf5000 Sz: 4096 	 Sm: 0 	 T: memcpy_h2d(1.758947)
F:  8155033----T:  8157638 	 St: c0bf8000 Sz: 4096 	 Sm: 0 	 T: memcpy_h2d(1.758947)
F:  8157638----T:  8160243 	 St: c0bf9000 Sz: 4096 	 Sm: 0 	 T: memcpy_h2d(1.758947)
F:  8160243----T:  8162848 	 St: c0bfc000 Sz: 4096 	 Sm: 0 	 T: memcpy_h2d(1.758947)
F:  8162848----T:  8165453 	 St: c0bfd000 Sz: 4096 	 Sm: 0 	 T: memcpy_h2d(1.758947)
F:  8165453----T:  8168058 	 St: c07e4000 Sz: 4096 	 Sm: 0 	 T: memcpy_h2d(1.758947)
F:  8168058----T:  8170663 	 St: c07e5000 Sz: 4096 	 Sm: 0 	 T: memcpy_h2d(1.758947)
F:  8170663----T:  8173268 	 St: c07e8000 Sz: 4096 	 Sm: 0 	 T: memcpy_h2d(1.758947)
F:  8173268----T:  8175873 	 St: c07e9000 Sz: 4096 	 Sm: 0 	 T: memcpy_h2d(1.758947)
F:  8175873----T:  8178478 	 St: c07ee000 Sz: 4096 	 Sm: 0 	 T: memcpy_h2d(1.758947)
F:  8178478----T:  8181083 	 St: c07ef000 Sz: 4096 	 Sm: 0 	 T: memcpy_h2d(1.758947)
F:  8181083----T:  8183688 	 St: c07ec000 Sz: 4096 	 Sm: 0 	 T: memcpy_h2d(1.758947)
F:  8183688----T:  8186293 	 St: c07ed000 Sz: 4096 	 Sm: 0 	 T: memcpy_h2d(1.758947)
F:  8186293----T:  8188898 	 St: c07e6000 Sz: 4096 	 Sm: 0 	 T: memcpy_h2d(1.758947)
F:  8188898----T:  8191503 	 St: c07e7000 Sz: 4096 	 Sm: 0 	 T: memcpy_h2d(1.758947)
F:  8191503----T:  8194108 	 St: c07ea000 Sz: 4096 	 Sm: 0 	 T: memcpy_h2d(1.758947)
F:  8194108----T:  8196713 	 St: c07eb000 Sz: 4096 	 Sm: 0 	 T: memcpy_h2d(1.758947)
F:  8196713----T:  8199318 	 St: c07f0000 Sz: 4096 	 Sm: 0 	 T: memcpy_h2d(1.758947)
F:  8199318----T:  8201923 	 St: c07f1000 Sz: 4096 	 Sm: 0 	 T: memcpy_h2d(1.758947)
F:  8201923----T:  8204528 	 St: c07f4000 Sz: 4096 	 Sm: 0 	 T: memcpy_h2d(1.758947)
F:  8204528----T:  8207133 	 St: c07f5000 Sz: 4096 	 Sm: 0 	 T: memcpy_h2d(1.758947)
F:  8207133----T:  8209738 	 St: c07f6000 Sz: 4096 	 Sm: 0 	 T: memcpy_h2d(1.758947)
F:  8209738----T:  8212343 	 St: c07f7000 Sz: 4096 	 Sm: 0 	 T: memcpy_h2d(1.758947)
F:  8212343----T:  8214948 	 St: c07f8000 Sz: 4096 	 Sm: 0 	 T: memcpy_h2d(1.758947)
F:  8214948----T:  8217553 	 St: c07f9000 Sz: 4096 	 Sm: 0 	 T: memcpy_h2d(1.758947)
F:  8217553----T:  8220158 	 St: c07fa000 Sz: 4096 	 Sm: 0 	 T: memcpy_h2d(1.758947)
F:  8220158----T:  8222763 	 St: c07fb000 Sz: 4096 	 Sm: 0 	 T: memcpy_h2d(1.758947)
F:  8222763----T:  8225368 	 St: c07f2000 Sz: 4096 	 Sm: 0 	 T: memcpy_h2d(1.758947)
F:  8225368----T:  8227973 	 St: c07f3000 Sz: 4096 	 Sm: 0 	 T: memcpy_h2d(1.758947)
F:  8228787----T:  8231392 	 St: c03fe000 Sz: 4096 	 Sm: 0 	 T: memcpy_h2d(1.758947)
F:  8231392----T:  8233997 	 St: c03ff000 Sz: 4096 	 Sm: 0 	 T: memcpy_h2d(1.758947)
F:  8234371----T:  8236976 	 St: c0bfe000 Sz: 4096 	 Sm: 0 	 T: memcpy_h2d(1.758947)
F:  8236976----T:  8239581 	 St: c0bff000 Sz: 4096 	 Sm: 0 	 T: memcpy_h2d(1.758947)
F:  8241943----T:  8244548 	 St: c07fc000 Sz: 4096 	 Sm: 0 	 T: memcpy_h2d(1.758947)
F:  8244548----T:  8247153 	 St: c07fd000 Sz: 4096 	 Sm: 0 	 T: memcpy_h2d(1.758947)
F:  8247153----T:  8249758 	 St: c07fe000 Sz: 4096 	 Sm: 0 	 T: memcpy_h2d(1.758947)
F:  8249758----T:  8252363 	 St: c07ff000 Sz: 4096 	 Sm: 0 	 T: memcpy_h2d(1.758947)
F:  8474816----T:  8753225 	 	 	 Kl: 2 	 Sm: 0 	 T: kernel_launch(187.987167)
F:  8975375----T:  9253620 	 	 	 Kl: 3 	 Sm: 0 	 T: kernel_launch(187.876434)
F:  9475770----T:  9754518 	 	 	 Kl: 4 	 Sm: 0 	 T: kernel_launch(188.216064)
F:  9754518----T:  9757123 	 St: 0 Sz: 4096 	 Sm: 0 	 T: device_sync(1.758947)
F:  9754518----T:  9762758 	 St: 0 Sz: 61440 	 Sm: 0 	 T: device_sync(5.563808)
F:  9765363----T:  9767968 	 St: 0 Sz: 4096 	 Sm: 0 	 T: device_sync(1.758947)
F:  9765363----T:  9773603 	 St: 0 Sz: 61440 	 Sm: 0 	 T: device_sync(5.563808)
F:  9776208----T:  9778813 	 St: 0 Sz: 4096 	 Sm: 0 	 T: device_sync(1.758947)
F:  9776208----T:  9791903 	 St: 0 Sz: 126976 	 Sm: 0 	 T: device_sync(10.597569)
F:  9794508----T:  9797113 	 St: 0 Sz: 4096 	 Sm: 0 	 T: device_sync(1.758947)
F:  9794508----T:  9825231 	 St: 0 Sz: 258048 	 Sm: 0 	 T: device_sync(20.744766)
F:  9827836----T:  9830441 	 St: 0 Sz: 4096 	 Sm: 0 	 T: device_sync(1.758947)
F:  9827836----T:  9888672 	 St: 0 Sz: 520192 	 Sm: 0 	 T: device_sync(41.077652)
F:  9891277----T:  9893882 	 St: 0 Sz: 4096 	 Sm: 0 	 T: device_sync(1.758947)
F:  9891277----T: 10012366 	 St: 0 Sz: 1044480 	 Sm: 0 	 T: device_sync(81.761650)
F: 10014971----T: 10017576 	 St: 0 Sz: 4096 	 Sm: 0 	 T: device_sync(1.758947)
F: 10014971----T: 10023211 	 St: 0 Sz: 61440 	 Sm: 0 	 T: device_sync(5.563808)
F: 10025816----T: 10028421 	 St: 0 Sz: 4096 	 Sm: 0 	 T: device_sync(1.758947)
F: 10025816----T: 10034056 	 St: 0 Sz: 61440 	 Sm: 0 	 T: device_sync(5.563808)
F: 10036661----T: 10039266 	 St: 0 Sz: 4096 	 Sm: 0 	 T: device_sync(1.758947)
F: 10036661----T: 10052356 	 St: 0 Sz: 126976 	 Sm: 0 	 T: device_sync(10.597569)
F: 10054961----T: 10057566 	 St: 0 Sz: 4096 	 Sm: 0 	 T: device_sync(1.758947)
F: 10054961----T: 10085684 	 St: 0 Sz: 258048 	 Sm: 0 	 T: device_sync(20.744766)
F: 10088289----T: 10090894 	 St: 0 Sz: 4096 	 Sm: 0 	 T: device_sync(1.758947)
F: 10088289----T: 10149125 	 St: 0 Sz: 520192 	 Sm: 0 	 T: device_sync(41.077652)
F: 10151730----T: 10154335 	 St: 0 Sz: 4096 	 Sm: 0 	 T: device_sync(1.758947)
F: 10151730----T: 10272819 	 St: 0 Sz: 1044480 	 Sm: 0 	 T: device_sync(81.761650)
F: 10275424----T: 10278029 	 St: 0 Sz: 4096 	 Sm: 0 	 T: device_sync(1.758947)
F: 10275424----T: 10283664 	 St: 0 Sz: 61440 	 Sm: 0 	 T: device_sync(5.563808)
F: 10286269----T: 10288874 	 St: 0 Sz: 4096 	 Sm: 0 	 T: device_sync(1.758947)
F: 10286269----T: 10294509 	 St: 0 Sz: 61440 	 Sm: 0 	 T: device_sync(5.563808)
F: 10297114----T: 10299719 	 St: 0 Sz: 4096 	 Sm: 0 	 T: device_sync(1.758947)
F: 10297114----T: 10312809 	 St: 0 Sz: 126976 	 Sm: 0 	 T: device_sync(10.597569)
F: 10315414----T: 10318019 	 St: 0 Sz: 4096 	 Sm: 0 	 T: device_sync(1.758947)
F: 10315414----T: 10346137 	 St: 0 Sz: 258048 	 Sm: 0 	 T: device_sync(20.744766)
F: 10348742----T: 10351347 	 St: 0 Sz: 4096 	 Sm: 0 	 T: device_sync(1.758947)
F: 10348742----T: 10409578 	 St: 0 Sz: 520192 	 Sm: 0 	 T: device_sync(41.077652)
F: 10412183----T: 10414788 	 St: 0 Sz: 4096 	 Sm: 0 	 T: device_sync(1.758947)
F: 10412183----T: 10533272 	 St: 0 Sz: 1044480 	 Sm: 0 	 T: device_sync(81.761650)
F: 10535877----T: 10538482 	 St: 0 Sz: 4096 	 Sm: 0 	 T: device_sync(1.758947)
F: 10535877----T: 10544117 	 St: 0 Sz: 61440 	 Sm: 0 	 T: device_sync(5.563808)
F: 10546722----T: 10549327 	 St: 0 Sz: 4096 	 Sm: 0 	 T: device_sync(1.758947)
F: 10546722----T: 10554962 	 St: 0 Sz: 61440 	 Sm: 0 	 T: device_sync(5.563808)
F: 10557567----T: 10560172 	 St: 0 Sz: 4096 	 Sm: 0 	 T: device_sync(1.758947)
F: 10557567----T: 10573262 	 St: 0 Sz: 126976 	 Sm: 0 	 T: device_sync(10.597569)
F: 10575867----T: 10578472 	 St: 0 Sz: 4096 	 Sm: 0 	 T: device_sync(1.758947)
F: 10575867----T: 10606590 	 St: 0 Sz: 258048 	 Sm: 0 	 T: device_sync(20.744766)
F: 10609195----T: 10611800 	 St: 0 Sz: 4096 	 Sm: 0 	 T: device_sync(1.758947)
F: 10609195----T: 10670031 	 St: 0 Sz: 520192 	 Sm: 0 	 T: device_sync(41.077652)
F: 10672636----T: 10675241 	 St: 0 Sz: 4096 	 Sm: 0 	 T: device_sync(1.758947)
F: 10672636----T: 10793725 	 St: 0 Sz: 1044480 	 Sm: 0 	 T: device_sync(81.761650)
Tot_prefetch_time: 0(cycle), 0.000000(us)
Tot_kernel_exec_time: 8865918(cycle), 5986.440430(us)
Tot_kernel_exec_time_and_fault_time: 213599358(cycle), 144226.437500(us)
Tot_memcpy_h2d_time: 8002560(cycle), 5403.484375(us)
Tot_memcpy_d2h_time: 0(cycle), 0.000000(us)
Tot_memcpy_time: 8002560(cycle), 5403.484375(us)
Tot_devicesync_time: 1041812(cycle), 703.451721(us)
Tot_writeback_time: 0(cycle), 0.000000(us)
Tot_dma_time: 0(cycle), 0.000000(us)
Tot_memcpy_d2h_sync_wb_time: 1041812(cycle), 703.451721(us)
GPGPU-Sim: *** exit detected ***
