

        *** GPGPU-Sim Simulator Version 3.2.2  [build gpgpu-sim_git-commit-32a5e88e7f0bd0281e1f3b1056e517909662bd85_modified_0] ***


GPGPU-Sim PTX: simulation mode 0 (can change with PTX_SIM_MODE_FUNC environment variable:
               1=functional simulation only, 0=detailed performance simulator)
GPGPU-Sim: Configuration options:

-network_mode                           1 # Interconnection network mode
-inter_config_file   config_fermi_islip.icnt # Interconnection network config file
-gpgpu_ptx_use_cuobjdump                    1 # Use cuobjdump to extract ptx and sass from binaries
-gpgpu_experimental_lib_support                    0 # Try to extract code from cuda libraries [Broken because of unknown cudaGetExportTable]
-gpgpu_ptx_convert_to_ptxplus                    0 # Convert SASS (native ISA) to ptxplus and run ptxplus
-gpgpu_ptx_force_max_capability                   20 # Force maximum compute capability
-gpgpu_ptx_inst_debug_to_file                    0 # Dump executed instructions' debug information to file
-gpgpu_ptx_inst_debug_file       inst_debug.txt # Executed instructions' debug output file
-gpgpu_ptx_inst_debug_thread_uid                    1 # Thread UID for executed instructions' debug output
-gpgpu_simd_model                       1 # 1 = post-dominator
-gpgpu_shader_core_pipeline              2048:32 # shader core pipeline config, i.e., {<nthread>:<warpsize>}
-gpgpu_tex_cache:l1  16:128:24,L:R:m:N:L,F:128:4,128:2 # per-shader L1 texture cache  (READ-ONLY) config  {<nsets>:<bsize>:<assoc>,<rep>:<wr>:<alloc>:<wr_alloc>,<mshr>:<N>:<merge>,<mq>:<rf>}
-gpgpu_const_cache:l1 128:64:2,L:R:f:N:L,A:2:64,4 # per-shader L1 constant memory cache  (READ-ONLY) config  {<nsets>:<bsize>:<assoc>,<rep>:<wr>:<alloc>:<wr_alloc>,<mshr>:<N>:<merge>,<mq>} 
-gpgpu_cache:il1     8:128:4,L:R:f:N:L,A:2:48,4 # shader L1 instruction cache config  {<nsets>:<bsize>:<assoc>,<rep>:<wr>:<alloc>:<wr_alloc>,<mshr>:<N>:<merge>,<mq>} 
-gpgpu_cache:dl1     64:128:6,L:L:m:N:H,A:128:8,8 # per-shader L1 data cache config  {<nsets>:<bsize>:<assoc>,<rep>:<wr>:<alloc>:<wr_alloc>,<mshr>:<N>:<merge>,<mq> | none}
-gpgpu_cache:dl1PrefL1                 none # per-shader L1 data cache config  {<nsets>:<bsize>:<assoc>,<rep>:<wr>:<alloc>:<wr_alloc>,<mshr>:<N>:<merge>,<mq> | none}
-gpgpu_cache:dl1PrefShared                 none # per-shader L1 data cache config  {<nsets>:<bsize>:<assoc>,<rep>:<wr>:<alloc>:<wr_alloc>,<mshr>:<N>:<merge>,<mq> | none}
-gmem_skip_L1D                          1 # global memory access skip L1D cache (implements -Xptxas -dlcm=cg, default=no skip)
-gpgpu_perfect_mem                      0 # enable perfect memory mode (no cache miss)
-n_regfile_gating_group                    4 # group of lanes that should be read/written together)
-gpgpu_clock_gated_reg_file                    0 # enable clock gated reg file for power calculations
-gpgpu_clock_gated_lanes                    0 # enable clock gated lanes for power calculations
-gpgpu_shader_registers                65536 # Number of registers per shader core. Limits number of concurrent CTAs. (default 8192)
-gpgpu_shader_cta                      32 # Maximum number of concurrent CTAs in shader (default 8)
-gpgpu_num_cta_barriers                   16 # Maximum number of named barriers per CTA (default 16)
-gpgpu_n_clusters                      28 # number of processing clusters
-gpgpu_n_cores_per_cluster                    1 # number of simd cores per cluster
-gpgpu_n_cluster_ejection_buffer_size                    8 # number of packets in ejection buffer
-gpgpu_n_ldst_response_buffer_size                    2 # number of response packets in ld/st unit ejection buffer
-gpgpu_shmem_size                   16384 # Size of shared memory per shader core (default 16kB)
-gpgpu_shmem_size                   98304 # Size of shared memory per shader core (default 16kB)
-gpgpu_shmem_size_PrefL1                16384 # Size of shared memory per shader core (default 16kB)
-gpgpu_shmem_size_PrefShared                16384 # Size of shared memory per shader core (default 16kB)
-gpgpu_shmem_num_banks                   32 # Number of banks in the shared memory in each shader core (default 16)
-gpgpu_shmem_limited_broadcast                    0 # Limit shared memory to do one broadcast per cycle (default on)
-gpgpu_shmem_warp_parts                    1 # Number of portions a warp is divided into for shared memory bank conflict check 
-gpgpu_warpdistro_shader                   -1 # Specify which shader core to collect the warp size distribution from
-gpgpu_warp_issue_shader                    0 # Specify which shader core to collect the warp issue distribution from
-gpgpu_local_mem_map                    1 # Mapping from local memory space address to simulated GPU physical address space (default = enabled)
-gpgpu_num_reg_banks                   32 # Number of register banks (default = 8)
-gpgpu_reg_bank_use_warp_id                    0 # Use warp ID in mapping registers to banks (default = off)
-gpgpu_operand_collector_num_units_sp                   20 # number of collector units (default = 4)
-gpgpu_operand_collector_num_units_sfu                    4 # number of collector units (default = 4)
-gpgpu_operand_collector_num_units_mem                    8 # number of collector units (default = 2)
-gpgpu_operand_collector_num_units_gen                    0 # number of collector units (default = 0)
-gpgpu_operand_collector_num_in_ports_sp                    4 # number of collector unit in ports (default = 1)
-gpgpu_operand_collector_num_in_ports_sfu                    1 # number of collector unit in ports (default = 1)
-gpgpu_operand_collector_num_in_ports_mem                    1 # number of collector unit in ports (default = 1)
-gpgpu_operand_collector_num_in_ports_gen                    0 # number of collector unit in ports (default = 0)
-gpgpu_operand_collector_num_out_ports_sp                    4 # number of collector unit in ports (default = 1)
-gpgpu_operand_collector_num_out_ports_sfu                    1 # number of collector unit in ports (default = 1)
-gpgpu_operand_collector_num_out_ports_mem                    1 # number of collector unit in ports (default = 1)
-gpgpu_operand_collector_num_out_ports_gen                    0 # number of collector unit in ports (default = 0)
-gpgpu_coalesce_arch                   13 # Coalescing arch (default = 13, anything else is off for now)
-gpgpu_num_sched_per_core                    2 # Number of warp schedulers per core
-gpgpu_max_insn_issue_per_warp                    2 # Max number of instructions that can be issued per warp in one cycle by scheduler
-gpgpu_simt_core_sim_order                    1 # Select the simulation order of cores in a cluster (0=Fix, 1=Round-Robin)
-gpgpu_pipeline_widths        4,1,1,4,1,1,6 # Pipeline widths ID_OC_SP,ID_OC_SFU,ID_OC_MEM,OC_EX_SP,OC_EX_SFU,OC_EX_MEM,EX_WB
-gpgpu_num_sp_units                     4 # Number of SP units (default=1)
-gpgpu_num_sfu_units                    1 # Number of SF units (default=1)
-gpgpu_num_mem_units                    1 # Number if ldst units (default=1) WARNING: not hooked up to anything
-gpgpu_scheduler                      gto # Scheduler configuration: < lrr | gto | two_level_active > If two_level_active:<num_active_warps>:<inner_prioritization>:<outer_prioritization>For complete list of prioritization values see shader.h enum scheduler_prioritization_typeDefault: gto
-gpgpu_concurrent_kernel_sm                    0 # Support concurrent kernels on a SM (default = disabled)
-tlb_size                            4096 # Number of tlb entries per SM.
-gpgpu_dram_scheduler                    1 # 0 = fifo, 1 = FR-FCFS (defaul)
-gpgpu_dram_partition_queues              8:8:8:8 # i2$:$2d:d2$:$2i
-l2_ideal                               0 # Use a ideal L2 cache that always hit
-gpgpu_cache:dl2     64:128:16,L:B:m:W:L,A:1024:1024,4:0,32 # unified banked L2 data cache config  {<nsets>:<bsize>:<assoc>,<rep>:<wr>:<alloc>:<wr_alloc>,<mshr>:<N>:<merge>,<mq>}
-gpgpu_cache:dl2_texture_only                    0 # L2 cache used for texture only
-gpgpu_n_mem                           11 # number of memory modules (e.g. memory controllers) in gpu
-gpgpu_n_sub_partition_per_mchannel                    2 # number of memory subpartition in each memory module
-gpgpu_n_mem_per_ctrlr                    1 # number of memory chips per memory controller
-gpgpu_memlatency_stat                   14 # track and display latency statistics 0x2 enables MC, 0x4 enables queue logs
-gpgpu_frfcfs_dram_sched_queue_size                   64 # 0 = unlimited (default); # entries per chip
-gpgpu_dram_return_queue_size                  116 # 0 = unlimited (default); # entries per chip
-gpgpu_dram_buswidth                    4 # default = 4 bytes (8 bytes per cycle at DDR)
-gpgpu_dram_burst_length                    8 # Burst length of each DRAM request (default = 4 data bus cycle)
-dram_data_command_freq_ratio                    4 # Frequency ratio between DRAM data bus and command bus (default = 2 times, i.e. DDR)
-gpgpu_dram_timing_opt nbk=16:CCD=2:RRD=6:RCD=12:RAS=28:RP=12:RC=40: CL=12:WL=4:CDLR=5:WR=12:nbkgrp=1:CCDL=0:RTPL=0 # DRAM timing parameters = {nbk:tCCD:tRRD:tRCD:tRAS:tRP:tRC:CL:WL:tCDLR:tWR:nbkgrp:tCCDL:tRTPL}
-rop_latency                          120 # ROP queue latency (default 85)
-dram_latency                         100 # DRAM latency (default 30)
-gpgpu_mem_addr_mapping dramid@8;00000000.00000000.00000000.00000000.0000RRRR.RRRRRRRR.RBBBCCCC.BCCSSSSS # mapping memory address to dram model {dramid@<start bit>;<memory address map>}
-gpgpu_mem_addr_test                    0 # run sweep test to check address mapping for aliased address
-gpgpu_mem_address_mask                    1 # 0 = old addressing mask, 1 = new addressing mask, 2 = new add. mask + flipped bank sel and chip sel bits
-gpuwattch_xml_file  gpuwattch_geforcegtx1080ti.xml # GPUWattch XML file
-power_simulation_enabled                    1 # Turn on power simulator (1=On, 0=Off)
-power_per_cycle_dump                    0 # Dump detailed power output each cycle
-power_trace_enabled                    0 # produce a file for the power trace (1=On, 0=Off)
-power_trace_zlevel                     6 # Compression level of the power trace output log (0=no comp, 9=highest)
-steady_power_levels_enabled                    0 # produce a file for the steady power levels (1=On, 0=Off)
-steady_state_definition                  8:4 # allowed deviation:number of samples
-gpgpu_max_cycle                        0 # terminates gpu simulation early (0 = no limit)
-gpgpu_max_insn                         0 # terminates gpu simulation early (0 = no limit)
-gpgpu_max_cta                          0 # terminates gpu simulation early (0 = no limit)
-gpgpu_runtime_stat                   500 # display runtime statistics such as dram utilization {<freq>:<flag>}
-liveness_message_freq                    1 # Minimum number of seconds between simulation liveness messages (0 = always print)
-gpgpu_flush_l1_cache                    0 # Flush L1 cache at the end of each kernel call
-gpgpu_flush_l2_cache                    0 # Flush L2 cache at the end of each kernel call
-gpgpu_deadlock_detect                    0 # Stop the simulation at deadlock (1=on (default), 0=off)
-gpgpu_ptx_instruction_classification                    0 # if enabled will classify ptx instruction types per kernel (Max 255 kernels now)
-gpgpu_ptx_sim_mode                     0 # Select between Performance (default) or Functional simulation (1)
-gpgpu_clock_domains 1481.0:2962.0:1481.0:2750.0 # Clock Domain Frequencies in MhZ {<Core Clock>:<ICNT Clock>:<L2 Clock>:<DRAM Clock>}
-gpgpu_max_concurrent_kernel                    8 # maximum kernels that can run concurrently on GPU
-gpgpu_cflog_interval                    0 # Interval between each snapshot in control flow logger
-visualizer_enabled                     0 # Turn on visualizer output (1=On, 0=Off)
-visualizer_outputfile                 NULL # Specifies the output log file for visualizer
-visualizer_zlevel                      6 # Compression level of the visualizer output log (0=no comp, 9=highest)
-trace_enabled                          0 # Turn on traces
-trace_components                    none # comma seperated list of traces to enable. Complete list found in trace_streams.tup. Default none
-trace_sampling_core                    0 # The core which is printed using CORE_DPRINTF. Default 0
-trace_sampling_memory_partition                   -1 # The memory partition which is printed using MEMPART_DPRINTF. Default -1 (i.e. all)
-gddr_size                            4MB # Size of GDDR in MB/GB.(GLOBAL_HEAP_START, GLOBAL_HEAP_START + gddr_size) would be used for unmanged memory, (GLOBAL_HEAP_START + gddr_size, GLOBAL_HEAP_START + gddr_size*2) would be used for managed memory. 
-page_table_walk_latency                  100 # Average page table walk latency (in core cycle).
-eviction_policy                        0 # Select page eviction policy
-invalidate_clean                       0 # Should directly invalidate clean pages
-reserve_accessed_page_percent                    0 # Percentage of accessed pages reserved from eviction in hope that they will be accessed in next iteration.
-percentage_of_free_page_buffer                    0 # Percentage of free page buffer to trigger the page eviction.
-page_size                            4KB # GDDR page size, only 4KB/2MB avaliable.
-pcie_bandwidth                  16.0GB/s # PCI-e bandwidth per direction, in GB/s.
-enable_dma                             0 # Enable direct access to CPU memory
-multiply_dma_penalty                    2 # Oversubscription Multiplicative Penalty Factor for Adaptive DMA
-migrate_threshold                      8 # Access counter threshold for migrating the page from cpu to gpu
-sim_prof_enable                        1 # Enable gpgpu-sim profiler
-hardware_prefetch                      1 # Select gpgpu-sim hardware prefetcher
-hwprefetch_oversub                     1 # Select gpgpu-sim hardware prefetcher under over-subscription
-page_fault_latency                 66645 # Average fault latency (in core cycle).
-enable_accurate_simulation                    0 # Enable page fault functional simulation.
-enable_smart_runtime                    1 # Enable access pattern detection, policy engine, and adaptive memory management.
-enable_ptx_file_line_stats                    1 # Turn on PTX source line statistic profiling. (1 = On)
-ptx_line_stats_filename gpgpu_inst_stats.txt # Output file for PTX source line statistics.
-gpgpu_kernel_launch_latency               222150 # Kernel launch latency in cycles. Default: 0
-gpgpu_cdp_enabled                      0 # Turn on CDP
-save_embedded_ptx                      0 # saves ptx files embedded in binary as <n>.ptx
-keep                                   0 # keep intermediate files created by GPGPU-Sim when interfacing with external programs
-gpgpu_ptx_save_converted_ptxplus                    0 # Saved converted ptxplus to a file
-ptx_opcode_latency_int         4,13,4,5,145 # Opcode latencies for integers <ADD,MAX,MUL,MAD,DIV>Default 1,1,19,25,145
-ptx_opcode_latency_fp          4,13,4,5,39 # Opcode latencies for single precision floating points <ADD,MAX,MUL,MAD,DIV>Default 1,1,1,1,30
-ptx_opcode_latency_dp         8,19,8,8,330 # Opcode latencies for double precision floating points <ADD,MAX,MUL,MAD,DIV>Default 8,8,8,8,335
-ptx_opcode_initiation_int            1,2,2,2,8 # Opcode initiation intervals for integers <ADD,MAX,MUL,MAD,DIV>Default 1,1,4,4,32
-ptx_opcode_initiation_fp            1,2,1,1,4 # Opcode initiation intervals for single precision floating points <ADD,MAX,MUL,MAD,DIV>Default 1,1,1,1,5
-ptx_opcode_initiation_dp          1,2,1,1,130 # Opcode initiation intervals for double precision floating points <ADD,MAX,MUL,MAD,DIV>Default 8,8,8,8,130
-cdp_latency         7200,8000,100,12000,1600 # CDP API latency <cudaStreamCreateWithFlags, cudaGetParameterBufferV2_init_perWarp, cudaGetParameterBufferV2_perKernel, cudaLaunchDeviceV2_init_perWarp, cudaLaunchDevicV2_perKernel>Default 7200,8000,100,12000,1600
DRAM Timing Options:
nbk                                    16 # number of banks
CCD                                     2 # column to column delay
RRD                                     6 # minimal delay between activation of rows in different banks
RCD                                    12 # row to column delay
RAS                                    28 # time needed to activate row
RP                                     12 # time needed to precharge (deactivate) row
RC                                     40 # row cycle time
CDLR                                    5 # switching from write to read (changes tWTR)
WR                                     12 # last data-in to row precharge
CL                                     12 # CAS latency
WL                                      4 # Write latency
nbkgrp                                  1 # number of bank groups
CCDL                                    0 # column to column delay between accesses to different bank groups
RTPL                                    0 # read to precharge delay between accesses to different bank groups
Total number of memory sub partition = 22
addr_dec_mask[CHIP]  = 0000000000000000 	high:64 low:0
addr_dec_mask[BK]    = 0000000000007080 	high:15 low:7
addr_dec_mask[ROW]   = 000000000fff8000 	high:28 low:15
addr_dec_mask[COL]   = 0000000000000f7f 	high:12 low:0
addr_dec_mask[BURST] = 000000000000001f 	high:5 low:0
sub_partition_id_mask = 0000000000000080
GPGPU-Sim uArch: clock freqs: 1481000000.000000:2962000000.000000:1481000000.000000:2750000000.000000
GPGPU-Sim uArch: clock periods: 0.00000000067521944632:0.00000000033760972316:0.00000000067521944632:0.00000000036363636364
*** Initializing Memory Statistics ***
GPGPU-Sim uArch: interconnect node map (shaderID+MemID to icntID)
GPGPU-Sim uArch: Memory nodes ID start from index: 28
GPGPU-Sim uArch:    0   1   2   3   4   5   6
GPGPU-Sim uArch:    7   8   9  10  11  12  13
GPGPU-Sim uArch:   14  15  16  17  18  19  20
GPGPU-Sim uArch:   21  22  23  24  25  26  27
GPGPU-Sim uArch:   28  29  30  31  32  33  34
GPGPU-Sim uArch:   35  36  37  38  39  40  41
GPGPU-Sim uArch:   42  43  44  45  46  47  48
GPGPU-Sim uArch:   49
GPGPU-Sim uArch: interconnect node reverse map (icntID to shaderID+MemID)
GPGPU-Sim uArch: Memory nodes start from ID: 28
GPGPU-Sim uArch:    0   1   2   3   4   5   6
GPGPU-Sim uArch:    7   8   9  10  11  12  13
GPGPU-Sim uArch:   14  15  16  17  18  19  20
GPGPU-Sim uArch:   21  22  23  24  25  26  27
GPGPU-Sim uArch:   28  29  30  31  32  33  34
GPGPU-Sim uArch:   35  36  37  38  39  40  41
GPGPU-Sim uArch:   42  43  44  45  46  47  48
GPGPU-Sim uArch:   49
c1d2464185de1acba10a9a27951b386a  /root/gpgpu-sim_UVMSmart/benchmarks/Managed/ATAX/atax
GPGPU-Sim uArch: performance model initialization complete.
GPGPU-Sim PTX: __cudaRegisterFatBinary, fat_cubin_handle = 1, filename=default
self exe links to: /root/gpgpu-sim_UVMSmart/benchmarks/Managed/ATAX/atax
Running md5sum using "md5sum /root/gpgpu-sim_UVMSmart/benchmarks/Managed/ATAX/atax "
Parsing file _cuobjdump_complete_output_j6w7bo
######### cuobjdump parser ########
## Adding new section ELF
Adding arch: sm_20
Adding identifier: default
## Adding new section ELF
Adding arch: sm_20
Adding identifier: default
## Adding new section PTX
Adding ptx filename: _cuobjdump_1.ptx
Adding arch: sm_20
Adding identifier: default
Done parsing!!!
GPGPU-Sim PTX: __cudaRegisterFunction _Z12atax_kernel2PfS_S_ : hostFun 0x0x4010a2, fat_cubin_handle = 1
GPGPU-Sim PTX: instruction assembly for function '_Z12atax_kernel1PfS_S_'...   done.
GPGPU-Sim PTX: finding reconvergence points for '_Z12atax_kernel1PfS_S_'...
GPGPU-Sim PTX: Finding dominators for '_Z12atax_kernel1PfS_S_'...
GPGPU-Sim PTX: Finding immediate dominators for '_Z12atax_kernel1PfS_S_'...
GPGPU-Sim PTX: Finding postdominators for '_Z12atax_kernel1PfS_S_'...
GPGPU-Sim PTX: Finding immediate postdominators for '_Z12atax_kernel1PfS_S_'...
GPGPU-Sim PTX: pre-decoding instructions for '_Z12atax_kernel1PfS_S_'...
GPGPU-Sim PTX: reconvergence points for _Z12atax_kernel1PfS_S_...
GPGPU-Sim PTX:  1 (potential) branch divergence @  PC=0x040 (_1.ptx:34) @%p1 bra BB0_3;
GPGPU-Sim PTX:    immediate post dominator      @  PC=0x270 (_1.ptx:109) ret;
GPGPU-Sim PTX:  2 (potential) branch divergence @  PC=0x268 (_1.ptx:106) @%p2 bra BB0_2;
GPGPU-Sim PTX:    immediate post dominator      @  PC=0x270 (_1.ptx:109) ret;
GPGPU-Sim PTX: ... end of reconvergence points for _Z12atax_kernel1PfS_S_
GPGPU-Sim PTX: ... done pre-decoding instructions for '_Z12atax_kernel1PfS_S_'.
GPGPU-Sim PTX: instruction assembly for function '_Z12atax_kernel2PfS_S_'...   done.
GPGPU-Sim PTX: finding reconvergence points for '_Z12atax_kernel2PfS_S_'...
GPGPU-Sim PTX: Finding dominators for '_Z12atax_kernel2PfS_S_'...
GPGPU-Sim PTX: Finding immediate dominators for '_Z12atax_kernel2PfS_S_'...
GPGPU-Sim PTX: Finding postdominators for '_Z12atax_kernel2PfS_S_'...
GPGPU-Sim PTX: Finding immediate postdominators for '_Z12atax_kernel2PfS_S_'...
GPGPU-Sim PTX: pre-decoding instructions for '_Z12atax_kernel2PfS_S_'...
GPGPU-Sim PTX: reconvergence points for _Z12atax_kernel2PfS_S_...
GPGPU-Sim PTX:  1 (potential) branch divergence @  PC=0x2b8 (_1.ptx:133) @%p1 bra BB1_3;
GPGPU-Sim PTX:    immediate post dominator      @  PC=0x4b8 (_1.ptx:202) ret;
GPGPU-Sim PTX:  2 (potential) branch divergence @  PC=0x4b0 (_1.ptx:199) @%p2 bra BB1_2;
GPGPU-Sim PTX:    immediate post dominator      @  PC=0x4b8 (_1.ptx:202) ret;
GPGPU-Sim PTX: ... end of reconvergence points for _Z12atax_kernel2PfS_S_
GPGPU-Sim PTX: ... done pre-decoding instructions for '_Z12atax_kernel2PfS_S_'.
GPGPU-Sim PTX: finished parsing EMBEDDED .ptx file _1.ptx
Adding _cuobjdump_1.ptx with cubin handle 1
GPGPU-Sim PTX: extracting embedded .ptx to temporary file "_ptx_HLUIdw"
Running: cat _ptx_HLUIdw | sed 's/.version 1.5/.version 1.4/' | sed 's/, texmode_independent//' | sed 's/\(\.extern \.const\[1\] .b8 \w\+\)\[\]/\1\[1\]/' | sed 's/const\[.\]/const\[0\]/g' > _ptx2_5l5kfE
GPGPU-Sim PTX: generating ptxinfo using "$CUDA_INSTALL_PATH/bin/ptxas --gpu-name=sm_20 -v _ptx2_5l5kfE --output-file  /dev/null 2> _ptx_HLUIdwinfo"
GPGPU-Sim PTX: Kernel '_Z12atax_kernel2PfS_S_' : regs=14, lmem=0, smem=0, cmem=56
GPGPU-Sim PTX: Kernel '_Z12atax_kernel1PfS_S_' : regs=19, lmem=0, smem=0, cmem=56
GPGPU-Sim PTX: removing ptxinfo using "rm -f _ptx_HLUIdw _ptx2_5l5kfE _ptx_HLUIdwinfo"
GPGPU-Sim PTX: loading globals with explicit initializers... 
GPGPU-Sim PTX: finished loading globals (0 bytes total).
GPGPU-Sim PTX: loading constants with explicit initializers...  done.
GPGPU-Sim PTX: __cudaRegisterFunction _Z12atax_kernel1PfS_S_ : hostFun 0x0x400fe3, fat_cubin_handle = 1

GPGPU-Sim PTX: cudaLaunch for 0x0x400fe3 (mode=performance simulation) on stream 0
GPGPU-Sim PTX: pushing kernel '_Z12atax_kernel1PfS_S_' to stream 0, gridDim= (5,1,1) blockDim = (256,1,1) 
GPGPU-Sim uArch: Shader 1 bind to kernel 1 '_Z12atax_kernel1PfS_S_'
GPGPU-Sim uArch: CTA/core = 8, limited by: threads
GPGPU-Sim uArch: Shader 2 bind to kernel 1 '_Z12atax_kernel1PfS_S_'
GPGPU-Sim uArch: Shader 3 bind to kernel 1 '_Z12atax_kernel1PfS_S_'
GPGPU-Sim uArch: Shader 4 bind to kernel 1 '_Z12atax_kernel1PfS_S_'
GPGPU-Sim uArch: Shader 5 bind to kernel 1 '_Z12atax_kernel1PfS_S_'
Destroy streams for kernel 1: size 0
kernel_name = _Z12atax_kernel1PfS_S_ 
kernel_launch_uid = 1 
gpu_sim_cycle = 4905150
gpu_sim_insn = 6627200
gpu_ipc =       1.3511
gpu_tot_sim_cycle = 5127300
gpu_tot_sim_insn = 6627200
gpu_tot_ipc =       1.2925
gpu_tot_issued_cta = 5
max_total_param_size = 0
gpu_stall_dramfull = 6
gpu_stall_icnt2sh    = 1554
partiton_reqs_in_parallel = 107913294
partiton_reqs_in_parallel_total    = 0
partiton_level_parallism =      22.0000
partiton_level_parallism_total  =      21.0468
partiton_reqs_in_parallel_util = 107913294
partiton_reqs_in_parallel_util_total    = 0
gpu_sim_cycle_parition_util = 4905150
gpu_tot_sim_cycle_parition_util    = 0
partiton_level_parallism_util =      22.0000
partiton_level_parallism_util_total  =      22.0000
partiton_replys_in_parallel = 1531268
partiton_replys_in_parallel_total    = 0
L2_BW  =      29.5892 GB/Sec
L2_BW_total  =      28.3072 GB/Sec
gpu_total_sim_rate=5592

========= Core cache stats =========
L1I_cache:
	L1I_total_cache_accesses = 106868
	L1I_total_cache_misses = 106
	L1I_total_cache_miss_rate = 0.0010
	L1I_total_cache_pending_hits = 0
	L1I_total_cache_reservation_fails = 0
L1D_cache:
	L1D_cache_core[0]: Access = 0, Miss = 0, Miss_rate = -nan, Pending_hits = 0, Reservation_fails = 0
	L1D_cache_core[1]: Access = 0, Miss = 0, Miss_rate = -nan, Pending_hits = 0, Reservation_fails = 0
	L1D_cache_core[2]: Access = 0, Miss = 0, Miss_rate = -nan, Pending_hits = 0, Reservation_fails = 0
	L1D_cache_core[3]: Access = 0, Miss = 0, Miss_rate = -nan, Pending_hits = 0, Reservation_fails = 0
	L1D_cache_core[4]: Access = 0, Miss = 0, Miss_rate = -nan, Pending_hits = 0, Reservation_fails = 0
	L1D_cache_core[5]: Access = 0, Miss = 0, Miss_rate = -nan, Pending_hits = 0, Reservation_fails = 0
	L1D_cache_core[6]: Access = 0, Miss = 0, Miss_rate = -nan, Pending_hits = 0, Reservation_fails = 0
	L1D_cache_core[7]: Access = 0, Miss = 0, Miss_rate = -nan, Pending_hits = 0, Reservation_fails = 0
	L1D_cache_core[8]: Access = 0, Miss = 0, Miss_rate = -nan, Pending_hits = 0, Reservation_fails = 0
	L1D_cache_core[9]: Access = 0, Miss = 0, Miss_rate = -nan, Pending_hits = 0, Reservation_fails = 0
	L1D_cache_core[10]: Access = 0, Miss = 0, Miss_rate = -nan, Pending_hits = 0, Reservation_fails = 0
	L1D_cache_core[11]: Access = 0, Miss = 0, Miss_rate = -nan, Pending_hits = 0, Reservation_fails = 0
	L1D_cache_core[12]: Access = 0, Miss = 0, Miss_rate = -nan, Pending_hits = 0, Reservation_fails = 0
	L1D_cache_core[13]: Access = 0, Miss = 0, Miss_rate = -nan, Pending_hits = 0, Reservation_fails = 0
	L1D_cache_core[14]: Access = 0, Miss = 0, Miss_rate = -nan, Pending_hits = 0, Reservation_fails = 0
	L1D_cache_core[15]: Access = 0, Miss = 0, Miss_rate = -nan, Pending_hits = 0, Reservation_fails = 0
	L1D_cache_core[16]: Access = 0, Miss = 0, Miss_rate = -nan, Pending_hits = 0, Reservation_fails = 0
	L1D_cache_core[17]: Access = 0, Miss = 0, Miss_rate = -nan, Pending_hits = 0, Reservation_fails = 0
	L1D_cache_core[18]: Access = 0, Miss = 0, Miss_rate = -nan, Pending_hits = 0, Reservation_fails = 0
	L1D_cache_core[19]: Access = 0, Miss = 0, Miss_rate = -nan, Pending_hits = 0, Reservation_fails = 0
	L1D_cache_core[20]: Access = 0, Miss = 0, Miss_rate = -nan, Pending_hits = 0, Reservation_fails = 0
	L1D_cache_core[21]: Access = 0, Miss = 0, Miss_rate = -nan, Pending_hits = 0, Reservation_fails = 0
	L1D_cache_core[22]: Access = 0, Miss = 0, Miss_rate = -nan, Pending_hits = 0, Reservation_fails = 0
	L1D_cache_core[23]: Access = 0, Miss = 0, Miss_rate = -nan, Pending_hits = 0, Reservation_fails = 0
	L1D_cache_core[24]: Access = 0, Miss = 0, Miss_rate = -nan, Pending_hits = 0, Reservation_fails = 0
	L1D_cache_core[25]: Access = 0, Miss = 0, Miss_rate = -nan, Pending_hits = 0, Reservation_fails = 0
	L1D_cache_core[26]: Access = 0, Miss = 0, Miss_rate = -nan, Pending_hits = 0, Reservation_fails = 0
	L1D_cache_core[27]: Access = 0, Miss = 0, Miss_rate = -nan, Pending_hits = 0, Reservation_fails = 0
	L1D_total_cache_accesses = 0
	L1D_total_cache_misses = 0
	L1D_total_cache_pending_hits = 0
	L1D_total_cache_reservation_fails = 0
	L1D_cache_data_port_util = 0.000
	L1D_cache_fill_port_util = 0.000
L1C_cache:
	L1C_total_cache_accesses = 120
	L1C_total_cache_misses = 120
	L1C_total_cache_miss_rate = 1.0000
	L1C_total_cache_pending_hits = 0
	L1C_total_cache_reservation_fails = 0
L1T_cache:
	L1T_total_cache_accesses = 0
	L1T_total_cache_misses = 0
	L1T_total_cache_pending_hits = 0
	L1T_total_cache_reservation_fails = 0

Total_core_cache_stats:
	Total_core_cache_stats_breakdown[GLOBAL_ACC_R][HIT] = 0
	Total_core_cache_stats_breakdown[GLOBAL_ACC_R][HIT_RESERVED] = 0
	Total_core_cache_stats_breakdown[GLOBAL_ACC_R][MISS] = 0
	Total_core_cache_stats_breakdown[GLOBAL_ACC_R][RESERVATION_FAIL] = 0
	Total_core_cache_stats_breakdown[LOCAL_ACC_R][HIT] = 0
	Total_core_cache_stats_breakdown[LOCAL_ACC_R][HIT_RESERVED] = 0
	Total_core_cache_stats_breakdown[LOCAL_ACC_R][MISS] = 0
	Total_core_cache_stats_breakdown[LOCAL_ACC_R][RESERVATION_FAIL] = 0
	Total_core_cache_stats_breakdown[CONST_ACC_R][HIT] = 0
	Total_core_cache_stats_breakdown[CONST_ACC_R][HIT_RESERVED] = 0
	Total_core_cache_stats_breakdown[CONST_ACC_R][MISS] = 120
	Total_core_cache_stats_breakdown[CONST_ACC_R][RESERVATION_FAIL] = 0
	Total_core_cache_stats_breakdown[TEXTURE_ACC_R][HIT] = 0
	Total_core_cache_stats_breakdown[TEXTURE_ACC_R][HIT_RESERVED] = 0
	Total_core_cache_stats_breakdown[TEXTURE_ACC_R][MISS] = 0
	Total_core_cache_stats_breakdown[TEXTURE_ACC_R][RESERVATION_FAIL] = 0
	Total_core_cache_stats_breakdown[GLOBAL_ACC_W][HIT] = 0
	Total_core_cache_stats_breakdown[GLOBAL_ACC_W][HIT_RESERVED] = 0
	Total_core_cache_stats_breakdown[GLOBAL_ACC_W][MISS] = 0
	Total_core_cache_stats_breakdown[GLOBAL_ACC_W][RESERVATION_FAIL] = 0
	Total_core_cache_stats_breakdown[LOCAL_ACC_W][HIT] = 0
	Total_core_cache_stats_breakdown[LOCAL_ACC_W][HIT_RESERVED] = 0
	Total_core_cache_stats_breakdown[LOCAL_ACC_W][MISS] = 0
	Total_core_cache_stats_breakdown[LOCAL_ACC_W][RESERVATION_FAIL] = 0
	Total_core_cache_stats_breakdown[L1_WRBK_ACC][HIT] = 0
	Total_core_cache_stats_breakdown[L1_WRBK_ACC][HIT_RESERVED] = 0
	Total_core_cache_stats_breakdown[L1_WRBK_ACC][MISS] = 0
	Total_core_cache_stats_breakdown[L1_WRBK_ACC][RESERVATION_FAIL] = 0
	Total_core_cache_stats_breakdown[L2_WRBK_ACC][HIT] = 0
	Total_core_cache_stats_breakdown[L2_WRBK_ACC][HIT_RESERVED] = 0
	Total_core_cache_stats_breakdown[L2_WRBK_ACC][MISS] = 0
	Total_core_cache_stats_breakdown[L2_WRBK_ACC][RESERVATION_FAIL] = 0
	Total_core_cache_stats_breakdown[INST_ACC_R][HIT] = 106762
	Total_core_cache_stats_breakdown[INST_ACC_R][HIT_RESERVED] = 0
	Total_core_cache_stats_breakdown[INST_ACC_R][MISS] = 106
	Total_core_cache_stats_breakdown[INST_ACC_R][RESERVATION_FAIL] = 0
	Total_core_cache_stats_breakdown[L1_WR_ALLOC_R][HIT] = 0
	Total_core_cache_stats_breakdown[L1_WR_ALLOC_R][HIT_RESERVED] = 0
	Total_core_cache_stats_breakdown[L1_WR_ALLOC_R][MISS] = 0
	Total_core_cache_stats_breakdown[L1_WR_ALLOC_R][RESERVATION_FAIL] = 0
	Total_core_cache_stats_breakdown[L2_WR_ALLOC_R][HIT] = 0
	Total_core_cache_stats_breakdown[L2_WR_ALLOC_R][HIT_RESERVED] = 0
	Total_core_cache_stats_breakdown[L2_WR_ALLOC_R][MISS] = 0
	Total_core_cache_stats_breakdown[L2_WR_ALLOC_R][RESERVATION_FAIL] = 0
	Total_core_cache_stats_breakdown[CONST_ACC_R][TOTAL_ACCESS] = 120
	Total_core_cache_stats_breakdown[INST_ACC_R][TOTAL_ACCESS] = 106868
Shader 0 warp_id issue ditsribution:
warp_id:

distro:

gpgpu_n_tot_thrd_icount = 6717824
gpgpu_n_tot_w_icount = 209932
gpgpu_n_stall_shd_mem = 1404907
gpgpu_n_mem_read_local = 0
gpgpu_n_mem_write_local = 0
gpgpu_n_mem_read_global = 1485638
gpgpu_n_mem_write_global = 45600
gpgpu_n_mem_texture = 0
gpgpu_n_mem_const = 5
gpgpu_n_load_insn  = 2881200
gpgpu_n_store_insn = 1440000
gpgpu_n_shmem_insn = 0
gpgpu_n_tex_insn = 0
gpgpu_n_const_mem_insn = 0
gpgpu_n_param_mem_insn = 3840
gpgpu_n_shmem_bkconflict = 0
gpgpu_n_cache_bkconflict = 0
gpgpu_n_intrawarp_mshr_merge = 0
gpgpu_n_cmem_portconflict = 0
gpgpu_stall_shd_mem[c_mem][bk_conf] = 0
gpgpu_stall_shd_mem[c_mem][mshr_rc] = 0
gpgpu_stall_shd_mem[c_mem][icnt_rc] = 0
gpgpu_stall_shd_mem[c_mem][data_port_stall] = 0
gpgpu_stall_shd_mem[t_mem][mshr_rc] = 0
gpgpu_stall_shd_mem[t_mem][icnt_rc] = 0
gpgpu_stall_shd_mem[t_mem][data_port_stall] = 0
gpgpu_stall_shd_mem[s_mem][bk_conf] = 0
gpgpu_stall_shd_mem[gl_mem][bk_conf] = 0
gpgpu_stall_shd_mem[gl_mem][coal_stall] = 1394643
gpgpu_stall_shd_mem[gl_mem][data_port_stall] = 0
gpgpu_stall_shd_mem[g_mem_ld][mshr_rc] = 0
gpgpu_stall_shd_mem[g_mem_ld][icnt_rc] = 10264
gpgpu_stall_shd_mem[g_mem_ld][wb_icnt_rc] = 0
gpgpu_stall_shd_mem[g_mem_ld][wb_rsrv_fail] = 0
gpgpu_stall_shd_mem[g_mem_st][mshr_rc] = 0
gpgpu_stall_shd_mem[g_mem_st][icnt_rc] = 0
gpgpu_stall_shd_mem[g_mem_st][wb_icnt_rc] = 0
gpgpu_stall_shd_mem[g_mem_st][wb_rsrv_fail] = 0
gpgpu_stall_shd_mem[l_mem_ld][mshr_rc] = 0
gpgpu_stall_shd_mem[l_mem_ld][icnt_rc] = 0
gpgpu_stall_shd_mem[l_mem_ld][wb_icnt_rc] = 0
gpgpu_stall_shd_mem[l_mem_ld][wb_rsrv_fail] = 0
gpgpu_stall_shd_mem[l_mem_st][mshr_rc] = 0
gpgpu_stall_shd_mem[l_mem_st][icnt_rc] = 0
gpgpu_stall_shd_mem[l_mem_ld][wb_icnt_rc] = 0
gpgpu_stall_shd_mem[l_mem_ld][wb_rsrv_fail] = 0
gpu_reg_bank_conflict_stalls = 0
Warp Occupancy Distribution:
Stall:455	W0_Idle:2130868	W0_Scoreboard:45743057	W1:0	W2:0	W3:0	W4:0	W5:0	W6:0	W7:0	W8:0	W9:0	W10:0	W11:0	W12:0	W13:0	W14:0	W15:0	W16:5514	W17:0	W18:0	W19:0	W20:0	W21:0	W22:0	W23:0	W24:0	W25:0	W26:0	W27:0	W28:0	W29:0	W30:0	W31:0	W32:204418
traffic_breakdown_coretomem[CONST_ACC_R] = 40 {8:5,}
traffic_breakdown_coretomem[GLOBAL_ACC_R] = 11885104 {8:1485638,}
traffic_breakdown_coretomem[GLOBAL_ACC_W] = 6124800 {72:1200,136:44400,}
traffic_breakdown_coretomem[INST_ACC_R] = 200 {8:25,}
traffic_breakdown_memtocore[CONST_ACC_R] = 360 {72:5,}
traffic_breakdown_memtocore[GLOBAL_ACC_R] = 59429104 {40:1485600,72:1,136:37,}
traffic_breakdown_memtocore[GLOBAL_ACC_W] = 364800 {8:45600,}
traffic_breakdown_memtocore[INST_ACC_R] = 3400 {136:25,}
maxmrqlatency = 17 
maxdqlatency = 0 
maxmflatency = 804864 
averagemflatency = 1923 
max_icnt2mem_latency = 804690 
max_icnt2sh_latency = 5127299 
mrq_lat_table:45062 	5 	2 	17 	15 	0 	0 	0 	0 	0 	0 	0 	0 	0 	0 	0 	0 	0 	0 	0 	0 	0 	0 	0 	0 	0 	0 	0 	0 	0 	0 	0 	
dq_lat_table:0 	0 	0 	0 	0 	0 	0 	0 	0 	0 	0 	0 	0 	0 	0 	0 	0 	0 	0 	0 	0 	0 	0 	0 	0 	0 	0 	0 	0 	0 	0 	0 	
mf_lat_table:0 	0 	0 	0 	0 	0 	0 	1487713 	33042 	2 	5 	45 	23 	138 	458 	922 	1919 	3134 	2265 	1577 	0 	0 	0 	0 	0 	0 	0 	0 	0 	0 	0 	0 	
icnt2mem_lat_table:0 	0 	1451975 	68384 	188 	0 	219 	13 	1 	3 	5 	44 	24 	142 	454 	925 	1918 	3131 	2265 	1577 	0 	0 	0 	0 	
icnt2sh_lat_table:0 	0 	535605 	392377 	460068 	88507 	9077 	9 	0 	0 	0 	0 	0 	0 	0 	0 	0 	0 	0 	0 	13935 	12075 	19590 	0 	
mf_lat_pw_table:0 	0 	0 	0 	0 	0 	0 	5681 	2 	7 	37 	31 	54 	47 	70 	47 	46 	61 	77 	38 	0 	0 	0 	0 	0 	0 	0 	0 	0 	0 	0 	0 	
maximum concurrent accesses to same row:
dram[0]:         9        10        16        16        16        16        16        16        14        15        14        15        12        11        11        11 
dram[1]:        10        10        15        16        16        16        16        16        15        15        14        15        11        11        10        10 
dram[2]:         9         9        15        16        16        16        16        16        11        11        14        14        10        11        10        10 
dram[3]:         9         9        16        16        16        16        16        16        12        15        14        14        11        11        10        10 
dram[4]:         9         9        16        16        16        16        16        16        14        14        14        14        11        12         9        10 
dram[5]:        10        10        16        16        16        16        16        16        15        15        15        14        11        10        10        10 
dram[6]:        11        10        16        16        16        16        16        16        13        14        15        15        12        11        10        11 
dram[7]:        11        11        16        16        16        16        16        16        14        14        15        15        11        10        11        10 
dram[8]:        10        11        16        16        16        16        16        16        14        15        15        14        12        11        10        10 
dram[9]:         9         9        16        16        16        16        16        16        15        14        14        15        11        11        10        10 
dram[10]:         9         9        15        16        16        16        16        16        14        13        14        15        10        11        10         9 
maximum service time to same row:
dram[0]:   1527817   1528099    821471    838088    798277    788399    490382    487054    520632    523816    614303    614398   1173138    614305   1582566   1575664 
dram[1]:   1511061   1511318    838125    831400    804990    805046    477147    493739    537153    480527   1170363    614293    604456    597314   1575816   1579992 
dram[2]:   1511551   1494718    831446    831431    788343    788441    493800    490226    490320    490382    600144   1183246    597533    586602   1575736   1586773 
dram[3]:   1484574    788343    831449    831533    788399    788438    490322    487081    507010    507097   1170363   1187229   1183246   1170362   1587028   1579993 
dram[4]:    788441    788523    858144    831428    778411    804964    487125    480292    520602    520634   1173138    614304    614293    600145   1575838   1575923 
dram[5]:    788575    788672    831449    831533    788398    788438    493840    477147    480291    493740    614399   1180298    614304    614399   1575664   1586635 
dram[6]:    788887    788864    831400    831445    788502    788343    490320    501580    493827    507002   1173138    614304   1199697   1189663   1586937   1575868 
dram[7]:    788879    788848    831432    831449    788441    798333    501608    501629    507073    520658   1187372   1170363   1187193   1187371   1582311   1582458 
dram[8]:    891405    891358    821443    821510    798370    788342    503760    503806    477147    493738    614293    600144   1170465    614293   1596638   1592399 
dram[9]:    891330    891308    831430    831449    788441    788399    484412    493740    494765    507009    614304    604004    600146   1199802   1592561   1575664 
dram[10]:    891288    891295    831533    831401    689728    788501    484892    490319    507096    510570   1183149   1173139   1186912   1187228   1586635   1582391 
average row accesses per activate:
dram[0]:  1.178899  1.163636  1.435754  1.443820  1.462857  1.471264  1.542169  1.532934  1.588957  1.579268  1.445714  1.462428  1.267327  1.254902  1.158371  1.168950 
dram[1]:  1.168950  1.179724  1.451977  1.435754  1.488372  1.471264  1.542169  1.532934  1.585366  1.602484  1.451429  1.435028  1.273632  1.254902  1.174312  1.179724 
dram[2]:  1.174312  1.179724  1.419889  1.419889  1.438202  1.446328  1.505882  1.505882  1.547619  1.529412  1.411111  1.418994  1.242718  1.261084  1.179724  1.190698 
dram[3]:  1.179724  1.168950  1.441341  1.433333  1.414365  1.406593  1.523810  1.560976  1.556886  1.573171  1.403315  1.443182  1.261084  1.267327  1.185185  1.201878 
dram[4]:  1.163636  1.168950  1.417582  1.433333  1.414365  1.422222  1.542169  1.590062  1.569697  1.550898  1.443182  1.435028  1.267327  1.273632  1.178899  1.184332 
dram[5]:  1.168950  1.168950  1.409836  1.417582  1.430168  1.438202  1.560976  1.551515  1.573171  1.556886  1.426966  1.468208  1.254902  1.248780  1.189815  1.168182 
dram[6]:  1.190698  1.201878  1.425414  1.441341  1.422222  1.488372  1.505882  1.514793  1.576687  1.616352  1.462428  1.454023  1.242718  1.254902  1.178899  1.190698 
dram[7]:  1.219048  1.207547  1.425414  1.417582  1.488372  1.488372  1.542169  1.542169  1.632911  1.626582  1.462428  1.470930  1.254902  1.254902  1.179724  1.163636 
dram[8]:  1.207547  1.207547  1.425414  1.417582  1.479769  1.454545  1.551515  1.542169  1.632911  1.616352  1.454023  1.437500  1.254902  1.273632  1.179724  1.168950 
dram[9]:  1.196262  1.196262  1.433333  1.394595  1.479769  1.462857  1.551515  1.551515  1.618750  1.588957  1.413408  1.413408  1.286432  1.261084  1.168950  1.196262 
dram[10]:  1.185185  1.179724  1.372340  1.379679  1.471264  1.446328  1.551515  1.542169  1.579268  1.563636  1.405556  1.421348  1.261084  1.242718  1.179724  1.158371 
average row locality = 45101/33000 = 1.366697
number of total memory accesses made:
dram[0]:         0         0         0         0         0         0         0         0         0         0         0         0         0         0         0         0 
dram[1]:         0         0         0         0         0         0         0         0         0         0         0         0         0         0         0         0 
dram[2]:         0         0         0         0         0         0         0         0         0         0         0         0         0         0         0         0 
dram[3]:         0         0         0         0         0         0         0         0         0         0         0         0         0         0         0         0 
dram[4]:         0         0         0         0         0         0         0         0         0         0         0         0         0         0         0         0 
dram[5]:         0         0         0         0         0         0         0         0         0         0         0         0         0         0         0         0 
dram[6]:         0         0         0         0         0         0         0         0         0         0         0         0         0         0         0         0 
dram[7]:         0         0         0         0         0         0         0         0         0         0         0         0         0         0         0         0 
dram[8]:         0         0         0         0         0         0         0         0         0         0         0         0         0         0         0         0 
dram[9]:         0         0         0         0         0         0         0         0         0         0         0         0         0         0         0         0 
dram[10]:         0         0         0         0         0         0         0         0         0         0         0         0         0         0         0         0 
total accesses: 0
min_bank_accesses = 0!
min_chip_accesses = 0!
number of total read accesses:
dram[0]:       257       256       257       257       256       256       256       256       258       258       253       253       256       256       256       256 
dram[1]:       256       256       257       257       256       256       256       256       258       258       254       254       256       256       256       256 
dram[2]:       256       256       257       257       256       256       256       256       258       258       254       254       256       256       256       256 
dram[3]:       256       256       258       258       256       256       256       256       258       258       254       254       256       256       256       256 
dram[4]:       256       256       258       258       256       256       256       256       258       258       254       254       256       256       257       257 
dram[5]:       256       256       258       258       256       256       256       256       258       258       254       254       256       256       257       257 
dram[6]:       256       256       258       258       256       256       256       256       257       257       253       253       256       256       257       256 
dram[7]:       256       256       258       258       256       256       256       256       257       257       253       253       256       256       256       256 
dram[8]:       256       256       258       258       256       256       256       256       257       257       253       253       256       256       256       256 
dram[9]:       256       256       258       258       256       256       256       256       258       258       253       253       256       256       256       256 
dram[10]:       256       256       258       258       256       256       256       256       258       258       253       253       256       256       256       256 
total reads: 45082
bank skew: 258/253 = 1.02
chip skew: 4102/4096 = 1.00
number of total write accesses:
dram[0]:         0         0         0         0         0         0         0         0         1         1         0         0         0         0         0         0 
dram[1]:         0         0         0         0         0         0         0         0         2         0         0         0         0         0         0         0 
dram[2]:         0         0         0         0         0         0         0         0         2         2         0         0         0         0         0         0 
dram[3]:         0         0         0         0         0         0         0         0         2         0         0         0         0         0         0         0 
dram[4]:         0         0         0         0         0         0         0         0         1         1         0         0         0         0         0         0 
dram[5]:         0         0         0         0         0         0         0         0         0         2         0         0         0         0         0         0 
dram[6]:         0         0         0         0         0         0         0         0         0         0         0         0         0         0         0         0 
dram[7]:         0         0         0         0         0         0         0         0         1         0         0         0         0         0         0         0 
dram[8]:         0         0         0         0         0         0         0         0         1         0         0         0         0         0         0         0 
dram[9]:         0         0         0         0         0         0         0         0         1         1         0         0         0         0         0         0 
dram[10]:         0         0         0         0         0         0         0         0         1         0         0         0         0         0         0         0 
total reads: 19
min_bank_accesses = 0!
min_chip_accesses = 0!
average mf latency per bank:
dram[0]:      56304     58570     49506     69491     60624     42537     38199     53514    518647    515818     46119     53977     54152     39357     57421     50698
dram[1]:      53738     54391     46654     53685     58090     44098     58009     56810     40515     60625     52454     44287     56639     64487     49818     48852
dram[2]:      51116     62979     55243     63902     49214     50577     46611     48205    249007    529538     49228     35674     66205     60963     54219     54050
dram[3]:      43556     61378    165150     47428     58497     60284     45658     57894    512218     57319     50695     38822     41723     58750     63393     39608
dram[4]:      57296     70988     56292     54845     46023     44884     47319     49110     56582     51318     52521     48488     44901     60277     54930     54037
dram[5]:      57061     46507     64567     52275     47470     62490     49391     55784     51972     43624     48270     40638     55089     63904     47446     53747
dram[6]:      63083     61739     52744     43546     41466     49365     57912     47297     60646     49807     44890     49366     53011     56293     55027     65315
dram[7]:      65520     50587     62074     56466     50927     62612     48263     43227     55208     38915     46651     54190     42930     43918     51477     50316
dram[8]:      61907     47791     47961     47263     49595     53269     60384     55633     55640     49685     47701     51982     52095     67236     48938     57022
dram[9]:      71469     57790     57933     68941     46483     52446     51044     40787     52561     58910     55179     44699     52983     47983     50614     46117
dram[10]:      55855     50282     46955     60491     67263     49705     57217     54318     48662     46875     46100     52462     54023     55248     54903     55579
maximum mf latency per bank:
dram[0]:     722720    804841    804864    782074    786485    735424    758259    786468    786469    758278    786515    786472    760599    786525    804849    686880
dram[1]:     722705    786503    786495    735422    674319    786504    782082    758262    786509    786507    769907    786480    804830    786514    786480    804821
dram[2]:     795219    804849    804841    735537    735442    674330    786468    786468    758278    786470    786512    769906    760596    786512    804830    795215
dram[3]:     665978    786480    804841    782080    782089    786495    695511    758263    786508    695516    758276    786510    788696    769904    786525    804829
dram[4]:     804851    722711    786472    735519    782088    786493    786471    758268    786511    786468    672503    786519    804838    760602    769905    804829
dram[5]:     804821    786490    674320    786503    782078    674325    786477    782086    758259    786473    786473    786516    786535    760594    706411    804839
dram[6]:     804831    795211    786482    804852    786467    786502    695511    786475    786511    769902    786472    786526    786518    760597    795210    804839
dram[7]:     804831    722716    771531    786510    735522    782075    786469    695517    758269    786514    786471    769905    786518    804823    795219    786500
dram[8]:     786492    804862    735429    786483    786502    735434    758263    786472    672403    758269    786511    786520    769907    804849    804841    769906
dram[9]:     804841    795216    735529    804832    786500    782084    758278    786470    786477    786508    769903    786476    786525    769905    795213    786516
dram[10]:     786502    804841    735527    786493    786509    782084    782075    786468    786468    786510    786509    710551    760593    804830    804821    795211
Memory Partition 0: 
Cache L2_bank_000:
MSHR contents

Cache L2_bank_001:
MSHR contents

In Dram Latency Queue (total = 0): 
DRAM[0]: 16 bks, busW=4 BL=8 CL=12, tRRD=2 tCCD=6, tRCD=12 tRAS=28 tRP=12 tRC=40
n_cmd=9108143 n_nop=9085765 n_act=2999 n_pre=2983 n_req=4099 n_rd=16388 n_write=8 bw_util=0.0036
n_activity=141419 dram_eff=0.2319
bk0: 1028a 9100727i bk1: 1024a 9100668i bk2: 1028a 9101726i bk3: 1028a 9101754i bk4: 1024a 9101946i bk5: 1024a 9101963i bk6: 1024a 9102194i bk7: 1024a 9102165i bk8: 1032a 9102286i bk9: 1032a 9102242i bk10: 1012a 9102074i bk11: 1012a 9102141i bk12: 1024a 9101418i bk13: 1024a 9101244i bk14: 1024a 9100841i bk15: 1024a 9100755i 
dram_util_bins: 0 0 0 0 0 0 0 0 0 0
dram_eff_bins: 0 0 0 0 0 0 0 0 0 0
mrqq: max=2 avg=4.83084e-06
Memory Partition 1: 
Cache L2_bank_002:
MSHR contents

Cache L2_bank_003:
MSHR contents

In Dram Latency Queue (total = 0): 
DRAM[1]: 16 bks, busW=4 BL=8 CL=12, tRRD=2 tCCD=6, tRCD=12 tRAS=28 tRP=12 tRC=40
n_cmd=9108143 n_nop=9085783 n_act=2988 n_pre=2972 n_req=4100 n_rd=16392 n_write=8 bw_util=0.003601
n_activity=141016 dram_eff=0.2326
bk0: 1024a 9100760i bk1: 1024a 9100708i bk2: 1028a 9101770i bk3: 1028a 9101710i bk4: 1024a 9102001i bk5: 1024a 9101974i bk6: 1024a 9102205i bk7: 1024a 9102187i bk8: 1032a 9102206i bk9: 1032a 9102343i bk10: 1016a 9102091i bk11: 1016a 9102015i bk12: 1024a 9101438i bk13: 1024a 9101265i bk14: 1024a 9100903i bk15: 1024a 9100804i 
dram_util_bins: 0 0 0 0 0 0 0 0 0 0
dram_eff_bins: 0 0 0 0 0 0 0 0 0 0
mrqq: max=2 avg=1.02106e-05
Memory Partition 2: 
Cache L2_bank_004:
MSHR contents

Cache L2_bank_005:
MSHR contents

In Dram Latency Queue (total = 0): 
DRAM[2]: 16 bks, busW=4 BL=8 CL=12, tRRD=2 tCCD=6, tRCD=12 tRAS=28 tRP=12 tRC=40
n_cmd=9108143 n_nop=9085691 n_act=3030 n_pre=3014 n_req=4102 n_rd=16392 n_write=16 bw_util=0.003603
n_activity=142400 dram_eff=0.2304
bk0: 1024a 9100813i bk1: 1024a 9100765i bk2: 1028a 9101710i bk3: 1028a 9101720i bk4: 1024a 9101868i bk5: 1024a 9101899i bk6: 1024a 9102087i bk7: 1024a 9102087i bk8: 1032a 9102117i bk9: 1032a 9102058i bk10: 1016a 9101928i bk11: 1016a 9101940i bk12: 1024a 9101278i bk13: 1024a 9101271i bk14: 1024a 9100921i bk15: 1024a 9100854i 
dram_util_bins: 0 0 0 0 0 0 0 0 0 0
dram_eff_bins: 0 0 0 0 0 0 0 0 0 0
mrqq: max=2 avg=1.18575e-05
Memory Partition 3: 
Cache L2_bank_006:
MSHR contents

Cache L2_bank_007:
MSHR contents

In Dram Latency Queue (total = 0): 
DRAM[3]: 16 bks, busW=4 BL=8 CL=12, tRRD=2 tCCD=6, tRCD=12 tRAS=28 tRP=12 tRC=40
n_cmd=9108143 n_nop=9085727 n_act=3012 n_pre=2996 n_req=4102 n_rd=16400 n_write=8 bw_util=0.003603
n_activity=141343 dram_eff=0.2322
bk0: 1024a 9100842i bk1: 1024a 9100684i bk2: 1032a 9101729i bk3: 1032a 9101684i bk4: 1024a 9101787i bk5: 1024a 9101760i bk6: 1024a 9102126i bk7: 1024a 9102229i bk8: 1032a 9102131i bk9: 1032a 9102260i bk10: 1016a 9101930i bk11: 1016a 9102036i bk12: 1024a 9101384i bk13: 1024a 9101303i bk14: 1024a 9100932i bk15: 1024a 9100926i 
dram_util_bins: 0 0 0 0 0 0 0 0 0 0
dram_eff_bins: 0 0 0 0 0 0 0 0 0 0
mrqq: max=2 avg=1.01009e-05
Memory Partition 4: 
Cache L2_bank_008:
MSHR contents

Cache L2_bank_009:
MSHR contents

In Dram Latency Queue (total = 0): 
DRAM[4]: 16 bks, busW=4 BL=8 CL=12, tRRD=2 tCCD=6, tRCD=12 tRAS=28 tRP=12 tRC=40
n_cmd=9108143 n_nop=9085719 n_act=3012 n_pre=2996 n_req=4104 n_rd=16408 n_write=8 bw_util=0.003605
n_activity=141938 dram_eff=0.2313
bk0: 1024a 9100758i bk1: 1024a 9100708i bk2: 1032a 9101678i bk3: 1032a 9101704i bk4: 1024a 9101785i bk5: 1024a 9101808i bk6: 1024a 9102176i bk7: 1024a 9102289i bk8: 1032a 9102229i bk9: 1032a 9102181i bk10: 1016a 9102048i bk11: 1016a 9101995i bk12: 1024a 9101376i bk13: 1024a 9101329i bk14: 1028a 9100921i bk15: 1028a 9100832i 
dram_util_bins: 0 0 0 0 0 0 0 0 0 0
dram_eff_bins: 0 0 0 0 0 0 0 0 0 0
mrqq: max=1 avg=5.48959e-07
Memory Partition 5: 
Cache L2_bank_010:
MSHR contents

Cache L2_bank_011:
MSHR contents

In Dram Latency Queue (total = 0): 
DRAM[5]: 16 bks, busW=4 BL=8 CL=12, tRRD=2 tCCD=6, tRCD=12 tRAS=28 tRP=12 tRC=40
n_cmd=9108143 n_nop=9085711 n_act=3016 n_pre=3000 n_req=4104 n_rd=16408 n_write=8 bw_util=0.003605
n_activity=141626 dram_eff=0.2318
bk0: 1024a 9100753i bk1: 1024a 9100673i bk2: 1032a 9101663i bk3: 1032a 9101654i bk4: 1024a 9101842i bk5: 1024a 9101857i bk6: 1024a 9102242i bk7: 1024a 9102237i bk8: 1032a 9102286i bk9: 1032a 9102131i bk10: 1016a 9102011i bk11: 1016a 9102084i bk12: 1024a 9101340i bk13: 1024a 9101224i bk14: 1028a 9100934i bk15: 1028a 9100715i 
dram_util_bins: 0 0 0 0 0 0 0 0 0 0
dram_eff_bins: 0 0 0 0 0 0 0 0 0 0
mrqq: max=1 avg=3.40355e-06
Memory Partition 6: 
Cache L2_bank_012:
MSHR contents

Cache L2_bank_013:
MSHR contents

In Dram Latency Queue (total = 0): 
DRAM[6]: 16 bks, busW=4 BL=8 CL=12, tRRD=2 tCCD=6, tRCD=12 tRAS=28 tRP=12 tRC=40
n_cmd=9108143 n_nop=9085789 n_act=2991 n_pre=2975 n_req=4097 n_rd=16388 n_write=0 bw_util=0.003599
n_activity=141168 dram_eff=0.2322
bk0: 1024a 9100829i bk1: 1024a 9100858i bk2: 1032a 9101684i bk3: 1032a 9101735i bk4: 1024a 9101833i bk5: 1024a 9102036i bk6: 1024a 9102121i bk7: 1024a 9102135i bk8: 1028a 9102310i bk9: 1028a 9102399i bk10: 1012a 9102136i bk11: 1012a 9102066i bk12: 1024a 9101280i bk13: 1024a 9101248i bk14: 1028a 9100877i bk15: 1024a 9100839i 
dram_util_bins: 0 0 0 0 0 0 0 0 0 0
dram_eff_bins: 0 0 0 0 0 0 0 0 0 0
mrqq: max=1 avg=7.68543e-06
Memory Partition 7: 
Cache L2_bank_014:
MSHR contents

Cache L2_bank_015:
MSHR contents

In Dram Latency Queue (total = 0): 
DRAM[7]: 16 bks, busW=4 BL=8 CL=12, tRRD=2 tCCD=6, tRCD=12 tRAS=28 tRP=12 tRC=40
n_cmd=9108143 n_nop=9085837 n_act=2967 n_pre=2951 n_req=4097 n_rd=16384 n_write=4 bw_util=0.003599
n_activity=140970 dram_eff=0.2325
bk0: 1024a 9100986i bk1: 1024a 9100869i bk2: 1032a 9101684i bk3: 1032a 9101657i bk4: 1024a 9102035i bk5: 1024a 9102039i bk6: 1024a 9102194i bk7: 1024a 9102214i bk8: 1028a 9102421i bk9: 1028a 9102423i bk10: 1012a 9102144i bk11: 1012a 9102153i bk12: 1024a 9101343i bk13: 1024a 9101246i bk14: 1024a 9100919i bk15: 1024a 9100707i 
dram_util_bins: 0 0 0 0 0 0 0 0 0 0
dram_eff_bins: 0 0 0 0 0 0 0 0 0 0
mrqq: max=1 avg=9.00293e-06
Memory Partition 8: 
Cache L2_bank_016:
MSHR contents

Cache L2_bank_017:
MSHR contents

In Dram Latency Queue (total = 0): 
DRAM[8]: 16 bks, busW=4 BL=8 CL=12, tRRD=2 tCCD=6, tRCD=12 tRAS=28 tRP=12 tRC=40
n_cmd=9108143 n_nop=9085821 n_act=2975 n_pre=2959 n_req=4097 n_rd=16384 n_write=4 bw_util=0.003599
n_activity=141063 dram_eff=0.2324
bk0: 1024a 9100927i bk1: 1024a 9100871i bk2: 1032a 9101679i bk3: 1032a 9101649i bk4: 1024a 9102010i bk5: 1024a 9101916i bk6: 1024a 9102231i bk7: 1024a 9102212i bk8: 1028a 9102418i bk9: 1028a 9102397i bk10: 1012a 9102110i bk11: 1012a 9102037i bk12: 1024a 9101352i bk13: 1024a 9101324i bk14: 1024a 9100904i bk15: 1024a 9100748i 
dram_util_bins: 0 0 0 0 0 0 0 0 0 0
dram_eff_bins: 0 0 0 0 0 0 0 0 0 0
mrqq: max=1 avg=7.79522e-06
Memory Partition 9: 
Cache L2_bank_018:
MSHR contents

Cache L2_bank_019:
MSHR contents

In Dram Latency Queue (total = 0): 
DRAM[9]: 16 bks, busW=4 BL=8 CL=12, tRRD=2 tCCD=6, tRCD=12 tRAS=28 tRP=12 tRC=40
n_cmd=9108143 n_nop=9085785 n_act=2987 n_pre=2971 n_req=4100 n_rd=16392 n_write=8 bw_util=0.003601
n_activity=141137 dram_eff=0.2324
bk0: 1024a 9100882i bk1: 1024a 9100819i bk2: 1032a 9101678i bk3: 1032a 9101557i bk4: 1024a 9101979i bk5: 1024a 9101950i bk6: 1024a 9102211i bk7: 1024a 9102255i bk8: 1032a 9102379i bk9: 1032a 9102266i bk10: 1012a 9101982i bk11: 1012a 9101934i bk12: 1024a 9101453i bk13: 1024a 9101279i bk14: 1024a 9100884i bk15: 1024a 9100831i 
dram_util_bins: 0 0 0 0 0 0 0 0 0 0
dram_eff_bins: 0 0 0 0 0 0 0 0 0 0
mrqq: max=2 avg=1.43827e-05
Memory Partition 10: 
Cache L2_bank_020:
MSHR contents

Cache L2_bank_021:
MSHR contents

In Dram Latency Queue (total = 0): 
DRAM[10]: 16 bks, busW=4 BL=8 CL=12, tRRD=2 tCCD=6, tRCD=12 tRAS=28 tRP=12 tRC=40
n_cmd=9108143 n_nop=9085715 n_act=3024 n_pre=3008 n_req=4099 n_rd=16392 n_write=4 bw_util=0.0036
n_activity=141660 dram_eff=0.2315
bk0: 1024a 9100833i bk1: 1024a 9100750i bk2: 1032a 9101504i bk3: 1032a 9101495i bk4: 1024a 9101969i bk5: 1024a 9101866i bk6: 1024a 9102226i bk7: 1024a 9102225i bk8: 1032a 9102257i bk9: 1032a 9102234i bk10: 1012a 9101972i bk11: 1012a 9101980i bk12: 1024a 9101366i bk13: 1024a 9101191i bk14: 1024a 9100927i bk15: 1024a 9100698i 
dram_util_bins: 0 0 0 0 0 0 0 0 0 0
dram_eff_bins: 0 0 0 0 0 0 0 0 0 0
mrqq: max=2 avg=1.20771e-05

========= L2 cache stats =========
L2_cache_bank[0]: Access = 69063, Miss = 2049, Miss_rate = 0.030, Pending_hits = 4, Reservation_fails = 0
L2_cache_bank[1]: Access = 69058, Miss = 2048, Miss_rate = 0.030, Pending_hits = 0, Reservation_fails = 0
L2_cache_bank[2]: Access = 69090, Miss = 2049, Miss_rate = 0.030, Pending_hits = 0, Reservation_fails = 0
L2_cache_bank[3]: Access = 69090, Miss = 2049, Miss_rate = 0.030, Pending_hits = 0, Reservation_fails = 0
L2_cache_bank[4]: Access = 69090, Miss = 2049, Miss_rate = 0.030, Pending_hits = 0, Reservation_fails = 0
L2_cache_bank[5]: Access = 69090, Miss = 2049, Miss_rate = 0.030, Pending_hits = 0, Reservation_fails = 0
L2_cache_bank[6]: Access = 70306, Miss = 2050, Miss_rate = 0.029, Pending_hits = 37, Reservation_fails = 0
L2_cache_bank[7]: Access = 70306, Miss = 2050, Miss_rate = 0.029, Pending_hits = 2, Reservation_fails = 0
L2_cache_bank[8]: Access = 70311, Miss = 2051, Miss_rate = 0.029, Pending_hits = 5, Reservation_fails = 0
L2_cache_bank[9]: Access = 70311, Miss = 2051, Miss_rate = 0.029, Pending_hits = 4, Reservation_fails = 0
L2_cache_bank[10]: Access = 70311, Miss = 2051, Miss_rate = 0.029, Pending_hits = 4, Reservation_fails = 0
L2_cache_bank[11]: Access = 70311, Miss = 2051, Miss_rate = 0.029, Pending_hits = 1, Reservation_fails = 0
L2_cache_bank[12]: Access = 69078, Miss = 2049, Miss_rate = 0.030, Pending_hits = 0, Reservation_fails = 0
L2_cache_bank[13]: Access = 69073, Miss = 2048, Miss_rate = 0.030, Pending_hits = 0, Reservation_fails = 0
L2_cache_bank[14]: Access = 69073, Miss = 2048, Miss_rate = 0.030, Pending_hits = 0, Reservation_fails = 0
L2_cache_bank[15]: Access = 69073, Miss = 2048, Miss_rate = 0.030, Pending_hits = 0, Reservation_fails = 0
L2_cache_bank[16]: Access = 69073, Miss = 2048, Miss_rate = 0.030, Pending_hits = 0, Reservation_fails = 0
L2_cache_bank[17]: Access = 69073, Miss = 2048, Miss_rate = 0.030, Pending_hits = 0, Reservation_fails = 0
L2_cache_bank[18]: Access = 70274, Miss = 2049, Miss_rate = 0.029, Pending_hits = 0, Reservation_fails = 0
L2_cache_bank[19]: Access = 70274, Miss = 2049, Miss_rate = 0.029, Pending_hits = 0, Reservation_fails = 0
L2_cache_bank[20]: Access = 70274, Miss = 2049, Miss_rate = 0.029, Pending_hits = 0, Reservation_fails = 0
L2_cache_bank[21]: Access = 69666, Miss = 2049, Miss_rate = 0.029, Pending_hits = 0, Reservation_fails = 0
L2_total_cache_accesses = 1531268
L2_total_cache_misses = 45082
L2_total_cache_miss_rate = 0.0294
L2_total_cache_pending_hits = 57
L2_total_cache_reservation_fails = 0
L2_total_cache_breakdown:
	L2_cache_stats_breakdown[GLOBAL_ACC_R][HIT] = 1440522
	L2_cache_stats_breakdown[GLOBAL_ACC_R][HIT_RESERVED] = 40
	L2_cache_stats_breakdown[GLOBAL_ACC_R][MISS] = 45076
	L2_cache_stats_breakdown[GLOBAL_ACC_R][RESERVATION_FAIL] = 0
	L2_cache_stats_breakdown[LOCAL_ACC_R][HIT] = 0
	L2_cache_stats_breakdown[LOCAL_ACC_R][HIT_RESERVED] = 0
	L2_cache_stats_breakdown[LOCAL_ACC_R][MISS] = 0
	L2_cache_stats_breakdown[LOCAL_ACC_R][RESERVATION_FAIL] = 0
	L2_cache_stats_breakdown[CONST_ACC_R][HIT] = 0
	L2_cache_stats_breakdown[CONST_ACC_R][HIT_RESERVED] = 4
	L2_cache_stats_breakdown[CONST_ACC_R][MISS] = 1
	L2_cache_stats_breakdown[CONST_ACC_R][RESERVATION_FAIL] = 0
	L2_cache_stats_breakdown[TEXTURE_ACC_R][HIT] = 0
	L2_cache_stats_breakdown[TEXTURE_ACC_R][HIT_RESERVED] = 0
	L2_cache_stats_breakdown[TEXTURE_ACC_R][MISS] = 0
	L2_cache_stats_breakdown[TEXTURE_ACC_R][RESERVATION_FAIL] = 0
	L2_cache_stats_breakdown[GLOBAL_ACC_W][HIT] = 45600
	L2_cache_stats_breakdown[GLOBAL_ACC_W][HIT_RESERVED] = 0
	L2_cache_stats_breakdown[GLOBAL_ACC_W][MISS] = 0
	L2_cache_stats_breakdown[GLOBAL_ACC_W][RESERVATION_FAIL] = 0
	L2_cache_stats_breakdown[LOCAL_ACC_W][HIT] = 0
	L2_cache_stats_breakdown[LOCAL_ACC_W][HIT_RESERVED] = 0
	L2_cache_stats_breakdown[LOCAL_ACC_W][MISS] = 0
	L2_cache_stats_breakdown[LOCAL_ACC_W][RESERVATION_FAIL] = 0
	L2_cache_stats_breakdown[L1_WRBK_ACC][HIT] = 0
	L2_cache_stats_breakdown[L1_WRBK_ACC][HIT_RESERVED] = 0
	L2_cache_stats_breakdown[L1_WRBK_ACC][MISS] = 0
	L2_cache_stats_breakdown[L1_WRBK_ACC][RESERVATION_FAIL] = 0
	L2_cache_stats_breakdown[L2_WRBK_ACC][HIT] = 0
	L2_cache_stats_breakdown[L2_WRBK_ACC][HIT_RESERVED] = 0
	L2_cache_stats_breakdown[L2_WRBK_ACC][MISS] = 0
	L2_cache_stats_breakdown[L2_WRBK_ACC][RESERVATION_FAIL] = 0
	L2_cache_stats_breakdown[INST_ACC_R][HIT] = 7
	L2_cache_stats_breakdown[INST_ACC_R][HIT_RESERVED] = 13
	L2_cache_stats_breakdown[INST_ACC_R][MISS] = 5
	L2_cache_stats_breakdown[INST_ACC_R][RESERVATION_FAIL] = 0
	L2_cache_stats_breakdown[L1_WR_ALLOC_R][HIT] = 0
	L2_cache_stats_breakdown[L1_WR_ALLOC_R][HIT_RESERVED] = 0
	L2_cache_stats_breakdown[L1_WR_ALLOC_R][MISS] = 0
	L2_cache_stats_breakdown[L1_WR_ALLOC_R][RESERVATION_FAIL] = 0
	L2_cache_stats_breakdown[L2_WR_ALLOC_R][HIT] = 0
	L2_cache_stats_breakdown[L2_WR_ALLOC_R][HIT_RESERVED] = 0
	L2_cache_stats_breakdown[L2_WR_ALLOC_R][MISS] = 0
	L2_cache_stats_breakdown[L2_WR_ALLOC_R][RESERVATION_FAIL] = 0
	L2_cache_stats_breakdown[GLOBAL_ACC_R][TOTAL_ACCESS] = 1485638
	L2_cache_stats_breakdown[CONST_ACC_R][TOTAL_ACCESS] = 5
	L2_cache_stats_breakdown[GLOBAL_ACC_W][TOTAL_ACCESS] = 45600
	L2_cache_stats_breakdown[INST_ACC_R][TOTAL_ACCESS] = 25
L2_cache_data_port_util = 0.015
L2_cache_fill_port_util = 0.002

icnt_total_pkts_mem_to_simt=3017128
icnt_total_pkts_simt_to_mem=1711268
LD_mem_lat_dist  0 0 0 0 0 0 0 0 0 0 0 0 0 0 0 0 0 0 0 0 0 0 0 0 0 0 0
ST_mem_lat_dist  0 0 0 0 0 0 0 0 0 0 0 0 0 0 0 0 0 0 0 0 0 0 0 0 0 0 0
----------------------------Interconnect-DETAILS--------------------------------
Class 0:
Packet latency average = 18.6421
	minimum = 6
	maximum = 271
Network latency average = 18.4406
	minimum = 6
	maximum = 255
Slowest packet = 2557971
Flit latency average = 20.3541
	minimum = 6
	maximum = 254
Slowest flit = 4167563
Fragmentation average = 0
	minimum = 0
	maximum = 0
Injected packet rate average = 0.00624351
	minimum = 0 (at node 0)
	maximum = 0.0332726 (at node 1)
Accepted packet rate average = 0.00624351
	minimum = 0 (at node 0)
	maximum = 0.0332726 (at node 1)
Injected flit rate average = 0.00963966
	minimum = 0 (at node 0)
	maximum = 0.0371868 (at node 1)
Accepted flit rate average= 0.00963966
	minimum = 0 (at node 0)
	maximum = 0.0655707 (at node 1)
Injected packet length average = 1.54395
Accepted packet length average = 1.54395
Total in-flight flits = 0 (0 measured)
====== Overall Traffic Statistics ======
====== Traffic class 0 ======
Packet latency average = 18.6421 (1 samples)
	minimum = 6 (1 samples)
	maximum = 271 (1 samples)
Network latency average = 18.4406 (1 samples)
	minimum = 6 (1 samples)
	maximum = 255 (1 samples)
Flit latency average = 20.3541 (1 samples)
	minimum = 6 (1 samples)
	maximum = 254 (1 samples)
Fragmentation average = 0 (1 samples)
	minimum = 0 (1 samples)
	maximum = 0 (1 samples)
Injected packet rate average = 0.00624351 (1 samples)
	minimum = 0 (1 samples)
	maximum = 0.0332726 (1 samples)
Accepted packet rate average = 0.00624351 (1 samples)
	minimum = 0 (1 samples)
	maximum = 0.0332726 (1 samples)
Injected flit rate average = 0.00963966 (1 samples)
	minimum = 0 (1 samples)
	maximum = 0.0371868 (1 samples)
Accepted flit rate average = 0.00963966 (1 samples)
	minimum = 0 (1 samples)
	maximum = 0.0655707 (1 samples)
Injected packet size average = 1.54395 (1 samples)
Accepted packet size average = 1.54395 (1 samples)
Hops average = 1 (1 samples)
----------------------------END-of-Interconnect-DETAILS-------------------------


gpgpu_simulation_time = 0 days, 0 hrs, 19 min, 45 sec (1185 sec)
gpgpu_simulation_rate = 5592 (inst/sec)
gpgpu_simulation_rate = 4326 (cycle/sec)

GPGPU-Sim PTX: cudaLaunch for 0x0x4010a2 (mode=performance simulation) on stream 0
GPGPU-Sim PTX: pushing kernel '_Z12atax_kernel2PfS_S_' to stream 0, gridDim= (5,1,1) blockDim = (256,1,1) 
GPGPU-Sim uArch: Shader 6 bind to kernel 2 '_Z12atax_kernel2PfS_S_'
GPGPU-Sim uArch: CTA/core = 8, limited by: threads
GPGPU-Sim uArch: Shader 7 bind to kernel 2 '_Z12atax_kernel2PfS_S_'
GPGPU-Sim uArch: Shader 8 bind to kernel 2 '_Z12atax_kernel2PfS_S_'
GPGPU-Sim uArch: Shader 9 bind to kernel 2 '_Z12atax_kernel2PfS_S_'
GPGPU-Sim uArch: Shader 10 bind to kernel 2 '_Z12atax_kernel2PfS_S_'
Destroy streams for kernel 2: size 0
kernel_name = _Z12atax_kernel2PfS_S_ 
kernel_launch_uid = 2 
gpu_sim_cycle = 1346740
gpu_sim_insn = 6738800
gpu_ipc =       5.0038
gpu_tot_sim_cycle = 6696190
gpu_tot_sim_insn = 13366000
gpu_tot_ipc =       1.9961
gpu_tot_issued_cta = 10
max_total_param_size = 0
gpu_stall_dramfull = 6
gpu_stall_icnt2sh    = 2222
partiton_reqs_in_parallel = 29628280
partiton_reqs_in_parallel_total    = 107913294
partiton_level_parallism =      22.0000
partiton_level_parallism_total  =      20.5403
partiton_reqs_in_parallel_util = 29628280
partiton_reqs_in_parallel_util_total    = 107913294
gpu_sim_cycle_parition_util = 1346740
gpu_tot_sim_cycle_parition_util    = 4905150
partiton_level_parallism_util =      22.0000
partiton_level_parallism_util_total  =      22.0000
partiton_replys_in_parallel = 159073
partiton_replys_in_parallel_total    = 1531268
L2_BW  =      11.1956 GB/Sec
L2_BW_total  =      23.9266 GB/Sec
gpu_total_sim_rate=8934

========= Core cache stats =========
L1I_cache:
	L1I_total_cache_accesses = 217384
	L1I_total_cache_misses = 333
	L1I_total_cache_miss_rate = 0.0015
	L1I_total_cache_pending_hits = 0
	L1I_total_cache_reservation_fails = 0
L1D_cache:
	L1D_cache_core[0]: Access = 0, Miss = 0, Miss_rate = -nan, Pending_hits = 0, Reservation_fails = 0
	L1D_cache_core[1]: Access = 0, Miss = 0, Miss_rate = -nan, Pending_hits = 0, Reservation_fails = 0
	L1D_cache_core[2]: Access = 0, Miss = 0, Miss_rate = -nan, Pending_hits = 0, Reservation_fails = 0
	L1D_cache_core[3]: Access = 0, Miss = 0, Miss_rate = -nan, Pending_hits = 0, Reservation_fails = 0
	L1D_cache_core[4]: Access = 0, Miss = 0, Miss_rate = -nan, Pending_hits = 0, Reservation_fails = 0
	L1D_cache_core[5]: Access = 0, Miss = 0, Miss_rate = -nan, Pending_hits = 0, Reservation_fails = 0
	L1D_cache_core[6]: Access = 0, Miss = 0, Miss_rate = -nan, Pending_hits = 0, Reservation_fails = 0
	L1D_cache_core[7]: Access = 0, Miss = 0, Miss_rate = -nan, Pending_hits = 0, Reservation_fails = 0
	L1D_cache_core[8]: Access = 0, Miss = 0, Miss_rate = -nan, Pending_hits = 0, Reservation_fails = 0
	L1D_cache_core[9]: Access = 0, Miss = 0, Miss_rate = -nan, Pending_hits = 0, Reservation_fails = 0
	L1D_cache_core[10]: Access = 0, Miss = 0, Miss_rate = -nan, Pending_hits = 0, Reservation_fails = 0
	L1D_cache_core[11]: Access = 0, Miss = 0, Miss_rate = -nan, Pending_hits = 0, Reservation_fails = 0
	L1D_cache_core[12]: Access = 0, Miss = 0, Miss_rate = -nan, Pending_hits = 0, Reservation_fails = 0
	L1D_cache_core[13]: Access = 0, Miss = 0, Miss_rate = -nan, Pending_hits = 0, Reservation_fails = 0
	L1D_cache_core[14]: Access = 0, Miss = 0, Miss_rate = -nan, Pending_hits = 0, Reservation_fails = 0
	L1D_cache_core[15]: Access = 0, Miss = 0, Miss_rate = -nan, Pending_hits = 0, Reservation_fails = 0
	L1D_cache_core[16]: Access = 0, Miss = 0, Miss_rate = -nan, Pending_hits = 0, Reservation_fails = 0
	L1D_cache_core[17]: Access = 0, Miss = 0, Miss_rate = -nan, Pending_hits = 0, Reservation_fails = 0
	L1D_cache_core[18]: Access = 0, Miss = 0, Miss_rate = -nan, Pending_hits = 0, Reservation_fails = 0
	L1D_cache_core[19]: Access = 0, Miss = 0, Miss_rate = -nan, Pending_hits = 0, Reservation_fails = 0
	L1D_cache_core[20]: Access = 0, Miss = 0, Miss_rate = -nan, Pending_hits = 0, Reservation_fails = 0
	L1D_cache_core[21]: Access = 0, Miss = 0, Miss_rate = -nan, Pending_hits = 0, Reservation_fails = 0
	L1D_cache_core[22]: Access = 0, Miss = 0, Miss_rate = -nan, Pending_hits = 0, Reservation_fails = 0
	L1D_cache_core[23]: Access = 0, Miss = 0, Miss_rate = -nan, Pending_hits = 0, Reservation_fails = 0
	L1D_cache_core[24]: Access = 0, Miss = 0, Miss_rate = -nan, Pending_hits = 0, Reservation_fails = 0
	L1D_cache_core[25]: Access = 0, Miss = 0, Miss_rate = -nan, Pending_hits = 0, Reservation_fails = 0
	L1D_cache_core[26]: Access = 0, Miss = 0, Miss_rate = -nan, Pending_hits = 0, Reservation_fails = 0
	L1D_cache_core[27]: Access = 0, Miss = 0, Miss_rate = -nan, Pending_hits = 0, Reservation_fails = 0
	L1D_total_cache_accesses = 0
	L1D_total_cache_misses = 0
	L1D_total_cache_pending_hits = 0
	L1D_total_cache_reservation_fails = 0
	L1D_cache_data_port_util = 0.000
	L1D_cache_fill_port_util = 0.000
L1C_cache:
	L1C_total_cache_accesses = 240
	L1C_total_cache_misses = 200
	L1C_total_cache_miss_rate = 0.8333
	L1C_total_cache_pending_hits = 0
	L1C_total_cache_reservation_fails = 0
L1T_cache:
	L1T_total_cache_accesses = 0
	L1T_total_cache_misses = 0
	L1T_total_cache_pending_hits = 0
	L1T_total_cache_reservation_fails = 0

Total_core_cache_stats:
	Total_core_cache_stats_breakdown[GLOBAL_ACC_R][HIT] = 0
	Total_core_cache_stats_breakdown[GLOBAL_ACC_R][HIT_RESERVED] = 0
	Total_core_cache_stats_breakdown[GLOBAL_ACC_R][MISS] = 0
	Total_core_cache_stats_breakdown[GLOBAL_ACC_R][RESERVATION_FAIL] = 0
	Total_core_cache_stats_breakdown[LOCAL_ACC_R][HIT] = 0
	Total_core_cache_stats_breakdown[LOCAL_ACC_R][HIT_RESERVED] = 0
	Total_core_cache_stats_breakdown[LOCAL_ACC_R][MISS] = 0
	Total_core_cache_stats_breakdown[LOCAL_ACC_R][RESERVATION_FAIL] = 0
	Total_core_cache_stats_breakdown[CONST_ACC_R][HIT] = 40
	Total_core_cache_stats_breakdown[CONST_ACC_R][HIT_RESERVED] = 0
	Total_core_cache_stats_breakdown[CONST_ACC_R][MISS] = 200
	Total_core_cache_stats_breakdown[CONST_ACC_R][RESERVATION_FAIL] = 0
	Total_core_cache_stats_breakdown[TEXTURE_ACC_R][HIT] = 0
	Total_core_cache_stats_breakdown[TEXTURE_ACC_R][HIT_RESERVED] = 0
	Total_core_cache_stats_breakdown[TEXTURE_ACC_R][MISS] = 0
	Total_core_cache_stats_breakdown[TEXTURE_ACC_R][RESERVATION_FAIL] = 0
	Total_core_cache_stats_breakdown[GLOBAL_ACC_W][HIT] = 0
	Total_core_cache_stats_breakdown[GLOBAL_ACC_W][HIT_RESERVED] = 0
	Total_core_cache_stats_breakdown[GLOBAL_ACC_W][MISS] = 0
	Total_core_cache_stats_breakdown[GLOBAL_ACC_W][RESERVATION_FAIL] = 0
	Total_core_cache_stats_breakdown[LOCAL_ACC_W][HIT] = 0
	Total_core_cache_stats_breakdown[LOCAL_ACC_W][HIT_RESERVED] = 0
	Total_core_cache_stats_breakdown[LOCAL_ACC_W][MISS] = 0
	Total_core_cache_stats_breakdown[LOCAL_ACC_W][RESERVATION_FAIL] = 0
	Total_core_cache_stats_breakdown[L1_WRBK_ACC][HIT] = 0
	Total_core_cache_stats_breakdown[L1_WRBK_ACC][HIT_RESERVED] = 0
	Total_core_cache_stats_breakdown[L1_WRBK_ACC][MISS] = 0
	Total_core_cache_stats_breakdown[L1_WRBK_ACC][RESERVATION_FAIL] = 0
	Total_core_cache_stats_breakdown[L2_WRBK_ACC][HIT] = 0
	Total_core_cache_stats_breakdown[L2_WRBK_ACC][HIT_RESERVED] = 0
	Total_core_cache_stats_breakdown[L2_WRBK_ACC][MISS] = 0
	Total_core_cache_stats_breakdown[L2_WRBK_ACC][RESERVATION_FAIL] = 0
	Total_core_cache_stats_breakdown[INST_ACC_R][HIT] = 217051
	Total_core_cache_stats_breakdown[INST_ACC_R][HIT_RESERVED] = 0
	Total_core_cache_stats_breakdown[INST_ACC_R][MISS] = 333
	Total_core_cache_stats_breakdown[INST_ACC_R][RESERVATION_FAIL] = 0
	Total_core_cache_stats_breakdown[L1_WR_ALLOC_R][HIT] = 0
	Total_core_cache_stats_breakdown[L1_WR_ALLOC_R][HIT_RESERVED] = 0
	Total_core_cache_stats_breakdown[L1_WR_ALLOC_R][MISS] = 0
	Total_core_cache_stats_breakdown[L1_WR_ALLOC_R][RESERVATION_FAIL] = 0
	Total_core_cache_stats_breakdown[L2_WR_ALLOC_R][HIT] = 0
	Total_core_cache_stats_breakdown[L2_WR_ALLOC_R][HIT_RESERVED] = 0
	Total_core_cache_stats_breakdown[L2_WR_ALLOC_R][MISS] = 0
	Total_core_cache_stats_breakdown[L2_WR_ALLOC_R][RESERVATION_FAIL] = 0
	Total_core_cache_stats_breakdown[CONST_ACC_R][TOTAL_ACCESS] = 240
	Total_core_cache_stats_breakdown[INST_ACC_R][TOTAL_ACCESS] = 217384
Shader 0 warp_id issue ditsribution:
warp_id:

distro:

gpgpu_n_tot_thrd_icount = 13548736
gpgpu_n_tot_w_icount = 423398
gpgpu_n_stall_shd_mem = 1427645
gpgpu_n_mem_read_local = 0
gpgpu_n_mem_write_local = 0
gpgpu_n_mem_read_global = 1599076
gpgpu_n_mem_write_global = 91200
gpgpu_n_mem_texture = 0
gpgpu_n_mem_const = 10
gpgpu_n_load_insn  = 5762400
gpgpu_n_store_insn = 2880000
gpgpu_n_shmem_insn = 0
gpgpu_n_tex_insn = 0
gpgpu_n_const_mem_insn = 0
gpgpu_n_param_mem_insn = 7680
gpgpu_n_shmem_bkconflict = 0
gpgpu_n_cache_bkconflict = 0
gpgpu_n_intrawarp_mshr_merge = 0
gpgpu_n_cmem_portconflict = 0
gpgpu_stall_shd_mem[c_mem][bk_conf] = 0
gpgpu_stall_shd_mem[c_mem][mshr_rc] = 0
gpgpu_stall_shd_mem[c_mem][icnt_rc] = 0
gpgpu_stall_shd_mem[c_mem][data_port_stall] = 0
gpgpu_stall_shd_mem[t_mem][mshr_rc] = 0
gpgpu_stall_shd_mem[t_mem][icnt_rc] = 0
gpgpu_stall_shd_mem[t_mem][data_port_stall] = 0
gpgpu_stall_shd_mem[s_mem][bk_conf] = 0
gpgpu_stall_shd_mem[gl_mem][bk_conf] = 0
gpgpu_stall_shd_mem[gl_mem][coal_stall] = 1417381
gpgpu_stall_shd_mem[gl_mem][data_port_stall] = 0
gpgpu_stall_shd_mem[g_mem_ld][mshr_rc] = 0
gpgpu_stall_shd_mem[g_mem_ld][icnt_rc] = 10264
gpgpu_stall_shd_mem[g_mem_ld][wb_icnt_rc] = 0
gpgpu_stall_shd_mem[g_mem_ld][wb_rsrv_fail] = 0
gpgpu_stall_shd_mem[g_mem_st][mshr_rc] = 0
gpgpu_stall_shd_mem[g_mem_st][icnt_rc] = 0
gpgpu_stall_shd_mem[g_mem_st][wb_icnt_rc] = 0
gpgpu_stall_shd_mem[g_mem_st][wb_rsrv_fail] = 0
gpgpu_stall_shd_mem[l_mem_ld][mshr_rc] = 0
gpgpu_stall_shd_mem[l_mem_ld][icnt_rc] = 0
gpgpu_stall_shd_mem[l_mem_ld][wb_icnt_rc] = 0
gpgpu_stall_shd_mem[l_mem_ld][wb_rsrv_fail] = 0
gpgpu_stall_shd_mem[l_mem_st][mshr_rc] = 0
gpgpu_stall_shd_mem[l_mem_st][icnt_rc] = 0
gpgpu_stall_shd_mem[l_mem_ld][wb_icnt_rc] = 0
gpgpu_stall_shd_mem[l_mem_ld][wb_rsrv_fail] = 0
gpu_reg_bank_conflict_stalls = 0
Warp Occupancy Distribution:
Stall:9958	W0_Idle:2144033	W0_Scoreboard:58978993	W1:0	W2:0	W3:0	W4:0	W5:0	W6:0	W7:0	W8:0	W9:0	W10:0	W11:0	W12:0	W13:0	W14:0	W15:0	W16:11121	W17:0	W18:0	W19:0	W20:0	W21:0	W22:0	W23:0	W24:0	W25:0	W26:0	W27:0	W28:0	W29:0	W30:0	W31:0	W32:412277
traffic_breakdown_coretomem[CONST_ACC_R] = 80 {8:10,}
traffic_breakdown_coretomem[GLOBAL_ACC_R] = 12792608 {8:1599076,}
traffic_breakdown_coretomem[GLOBAL_ACC_W] = 12249600 {72:2400,136:88800,}
traffic_breakdown_coretomem[INST_ACC_R] = 440 {8:55,}
traffic_breakdown_memtocore[CONST_ACC_R] = 720 {72:10,}
traffic_breakdown_memtocore[GLOBAL_ACC_R] = 67560608 {40:1531200,72:45602,136:22274,}
traffic_breakdown_memtocore[GLOBAL_ACC_W] = 729600 {8:91200,}
traffic_breakdown_memtocore[INST_ACC_R] = 7480 {136:55,}
maxmrqlatency = 24 
maxdqlatency = 0 
maxmflatency = 804864 
averagemflatency = 1796 
max_icnt2mem_latency = 804690 
max_icnt2sh_latency = 6696189 
mrq_lat_table:85885 	296 	167 	191 	77 	0 	0 	0 	0 	0 	0 	0 	0 	0 	0 	0 	0 	0 	0 	0 	0 	0 	0 	0 	0 	0 	0 	0 	0 	0 	0 	0 	
dq_lat_table:0 	0 	0 	0 	0 	0 	0 	0 	0 	0 	0 	0 	0 	0 	0 	0 	0 	0 	0 	0 	0 	0 	0 	0 	0 	0 	0 	0 	0 	0 	0 	0 	
mf_lat_table:0 	0 	0 	0 	0 	0 	0 	1588568 	89537 	2 	26 	636 	88 	834 	474 	1031 	1919 	3329 	2265 	1577 	0 	0 	0 	0 	0 	0 	0 	0 	0 	0 	0 	0 	
icnt2mem_lat_table:0 	0 	1535118 	79710 	459 	0 	62859 	13 	1 	3 	26 	635 	566 	361 	470 	1034 	1918 	3326 	2265 	1577 	0 	0 	0 	0 	
icnt2sh_lat_table:0 	0 	638045 	402784 	460664 	88507 	9077 	9 	0 	0 	0 	0 	0 	0 	0 	0 	0 	0 	0 	0 	13935 	12075 	65190 	0 	
mf_lat_pw_table:0 	0 	0 	0 	0 	0 	0 	6541 	5 	8 	47 	40 	58 	53 	71 	50 	47 	62 	77 	38 	0 	0 	0 	0 	0 	0 	0 	0 	0 	0 	0 	0 	
maximum concurrent accesses to same row:
dram[0]:        16        16        16        16        16        16        16        16        16        16        16        16        16        16        16        16 
dram[1]:        16        16        16        16        16        16        16        16        16        16        16        16        16        16        16        16 
dram[2]:        16        16        16        16        16        16        16        16        16        16        16        16        16        16        16        16 
dram[3]:        16        16        16        16        16        16        16        16        16        16        16        16        16        16        16        16 
dram[4]:        16        16        16        16        16        16        16        16        16        16        16        16        16        16        16        16 
dram[5]:        16        16        16        16        16        16        16        16        16        16        16        16        16        16        16        16 
dram[6]:        16        16        16        16        16        16        16        16        16        16        16        16        16        16        16        16 
dram[7]:        16        16        16        16        16        16        16        16        16        16        16        16        16        16        16        16 
dram[8]:        16        16        16        16        16        16        16        16        16        16        16        16        16        16        16        16 
dram[9]:        16        16        16        16        16        16        16        16        16        16        16        16        16        16        16        16 
dram[10]:        16        16        16        16        16        16        16        16        16        16        16        16        16        16        16        16 
maximum service time to same row:
dram[0]:   1527817   1528099    821471    838088    798277    788399    490382    487054    520632    523816    614303    614398   1173138    614305   1582566   1575664 
dram[1]:   1511061   1511318    838125    831400    804990    805046    477147    493739    537153    480527   1170363    614293    604456    597314   1575816   1579992 
dram[2]:   1511551   1494718    831446    831431    788343    788441    493800    490226    490320    490382    600144   1183246    597533    586602   1575736   1586773 
[...]
F:  3975091----T:  3979732 	 St: c02c9000 Sz: 28672 	 Sm: 0 	 T: memcpy_h2d(3.133693)
F:  3979732----T:  3982337 	 St: c0390000 Sz: 4096 	 Sm: 0 	 T: memcpy_h2d(1.758947)
F:  3982337----T:  3990577 	 St: c0391000 Sz: 61440 	 Sm: 0 	 T: memcpy_h2d(5.563808)
F:  3982471----T:  3991173 	 St: c0440000 Sz: 65536 	 Sm: 0 	 T: write_back(5.875760)
F:  3990577----T:  3993182 	 St: c0000000 Sz: 4096 	 Sm: 0 	 T: memcpy_h2d(1.758947)
F:  3991173----T:  3999875 	 St: c04f0000 Sz: 65536 	 Sm: 0 	 T: write_back(5.875760)
F:  3993182----T:  4001422 	 St: c0001000 Sz: 61440 	 Sm: 0 	 T: memcpy_h2d(5.563808)
F:  3999875----T:  4008577 	 St: c0500000 Sz: 65536 	 Sm: 0 	 T: write_back(5.875760)
F:  4001422----T:  4047669 	 St: c0090000 Sz: 393216 	 Sm: 0 	 T: memcpy_h2d(31.226873)
F:  4008577----T:  4017279 	 St: c0520000 Sz: 65536 	 Sm: 0 	 T: write_back(5.875760)
F:  4017279----T:  4025981 	 St: c0530000 Sz: 65536 	 Sm: 0 	 T: write_back(5.875760)
F:  4025981----T:  4034683 	 St: c0560000 Sz: 65536 	 Sm: 0 	 T: write_back(5.875760)
F:  4034683----T:  4043385 	 St: c0070000 Sz: 65536 	 Sm: 0 	 T: write_back(5.875760)
F:  4043385----T:  4052087 	 St: c0200000 Sz: 65536 	 Sm: 0 	 T: write_back(5.875760)
F:  4047669----T:  4056371 	 St: c0110000 Sz: 65536 	 Sm: 0 	 T: memcpy_h2d(5.875760)
F:  4052087----T:  4060789 	 St: c0230000 Sz: 65536 	 Sm: 0 	 T: write_back(5.875760)
F:  4056371----T:  4080043 	 St: c0160000 Sz: 196608 	 Sm: 0 	 T: memcpy_h2d(15.983795)
F:  4060789----T:  4069491 	 St: c0280000 Sz: 65536 	 Sm: 0 	 T: write_back(5.875760)
F:  4069491----T:  4078193 	 St: c0290000 Sz: 65536 	 Sm: 0 	 T: write_back(5.875760)
F:  4078193----T:  4086895 	 St: c02a0000 Sz: 65536 	 Sm: 0 	 T: write_back(5.875760)
F:  4080043----T:  4087365 	 St: c0190000 Sz: 53248 	 Sm: 0 	 T: memcpy_h2d(4.943957)
F:  4086895----T:  4095597 	 St: c0350000 Sz: 65536 	 Sm: 0 	 T: write_back(5.875760)
F:  4087365----T:  4090451 	 St: c019d000 Sz: 12288 	 Sm: 0 	 T: memcpy_h2d(2.083727)
F:  4090451----T:  4093056 	 St: c01a0000 Sz: 4096 	 Sm: 0 	 T: memcpy_h2d(1.758947)
F:  4093056----T:  4101296 	 St: c01a1000 Sz: 61440 	 Sm: 0 	 T: memcpy_h2d(5.563808)
F:  4095598----T:  4104300 	 St: c0360000 Sz: 65536 	 Sm: 0 	 T: write_back(5.875760)
F:  4101296----T:  4103901 	 St: c01c0000 Sz: 4096 	 Sm: 0 	 T: memcpy_h2d(1.758947)
F:  4103901----T:  4112141 	 St: c01c1000 Sz: 61440 	 Sm: 0 	 T: memcpy_h2d(5.563808)
F:  4112141----T:  4114746 	 St: c0320000 Sz: 4096 	 Sm: 0 	 T: memcpy_h2d(1.758947)
F:  4114746----T:  4122986 	 St: c0321000 Sz: 61440 	 Sm: 0 	 T: memcpy_h2d(5.563808)
F:  4122986----T:  4125591 	 St: c0330000 Sz: 4096 	 Sm: 0 	 T: memcpy_h2d(1.758947)
F:  4125591----T:  4133831 	 St: c0331000 Sz: 61440 	 Sm: 0 	 T: memcpy_h2d(5.563808)
F:  4133831----T:  4136436 	 St: c0120000 Sz: 4096 	 Sm: 0 	 T: memcpy_h2d(1.758947)
F:  4136436----T:  4144676 	 St: c0121000 Sz: 61440 	 Sm: 0 	 T: memcpy_h2d(5.563808)
F:  4144676----T:  4150191 	 St: c0250000 Sz: 36864 	 Sm: 0 	 T: memcpy_h2d(3.723835)
F:  4150191----T:  4154832 	 St: c0259000 Sz: 28672 	 Sm: 0 	 T: memcpy_h2d(3.133693)
F:  4154832----T:  4157437 	 St: c0410000 Sz: 4096 	 Sm: 0 	 T: memcpy_h2d(1.758947)
F:  4157437----T:  4165677 	 St: c0411000 Sz: 61440 	 Sm: 0 	 T: memcpy_h2d(5.563808)
F:  4165677----T:  4242046 	 St: c0450000 Sz: 655360 	 Sm: 0 	 T: memcpy_h2d(51.565834)
F:  4165962----T:  4174664 	 St: c0370000 Sz: 65536 	 Sm: 0 	 T: write_back(5.875760)
F:  4174664----T:  4183366 	 St: c03b0000 Sz: 65536 	 Sm: 0 	 T: write_back(5.875760)
F:  4183366----T:  4192068 	 St: c03d0000 Sz: 65536 	 Sm: 0 	 T: write_back(5.875760)
F:  4192068----T:  4200770 	 St: c03e0000 Sz: 65536 	 Sm: 0 	 T: write_back(5.875760)
F:  4200770----T:  4209472 	 St: c02c0000 Sz: 65536 	 Sm: 0 	 T: write_back(5.875760)
F:  4209472----T:  4225635 	 St: c02e0000 Sz: 131072 	 Sm: 0 	 T: write_back(10.913572)
F:  4225636----T:  4234338 	 St: c0410000 Sz: 65536 	 Sm: 0 	 T: write_back(5.875760)
F:  4242046----T:  4250748 	 St: c0510000 Sz: 65536 	 Sm: 0 	 T: memcpy_h2d(5.875760)
F:  4250748----T:  4266911 	 St: c0540000 Sz: 131072 	 Sm: 0 	 T: memcpy_h2d(10.913572)
F:  4266911----T:  4269516 	 St: c0210000 Sz: 4096 	 Sm: 0 	 T: memcpy_h2d(1.758947)
F:  4269516----T:  4285211 	 St: c0211000 Sz: 126976 	 Sm: 0 	 T: memcpy_h2d(10.597569)
F:  4285211----T:  4293913 	 St: c0260000 Sz: 65536 	 Sm: 0 	 T: memcpy_h2d(5.875760)
F:  4285500----T:  4294202 	 St: c0470000 Sz: 65536 	 Sm: 0 	 T: write_back(5.875760)
F:  4293913----T:  4302615 	 St: c02d0000 Sz: 65536 	 Sm: 0 	 T: memcpy_h2d(5.875760)
F:  4294202----T:  4302904 	 St: c0480000 Sz: 65536 	 Sm: 0 	 T: write_back(5.875760)
F:  4302615----T:  4311317 	 St: c0380000 Sz: 65536 	 Sm: 0 	 T: memcpy_h2d(5.875760)
F:  4302904----T:  4311606 	 St: c0490000 Sz: 65536 	 Sm: 0 	 T: write_back(5.875760)
F:  4311317----T:  4319097 	 St: c0270000 Sz: 57344 	 Sm: 0 	 T: memcpy_h2d(5.253207)
F:  4311606----T:  4327769 	 St: c04a0000 Sz: 131072 	 Sm: 0 	 T: write_back(10.913572)
F:  4319097----T:  4321897 	 St: c027e000 Sz: 8192 	 Sm: 0 	 T: memcpy_h2d(1.890614)
F:  4321897----T:  4324502 	 St: c03c0000 Sz: 4096 	 Sm: 0 	 T: memcpy_h2d(1.758947)
F:  4324502----T:  4332742 	 St: c03c1000 Sz: 61440 	 Sm: 0 	 T: memcpy_h2d(5.563808)
F:  4327769----T:  4343932 	 St: c0450000 Sz: 131072 	 Sm: 0 	 T: write_back(10.913572)
F:  4332742----T:  4335347 	 St: c03f0000 Sz: 4096 	 Sm: 0 	 T: memcpy_h2d(1.758947)
F:  4335347----T:  4343587 	 St: c03f1000 Sz: 61440 	 Sm: 0 	 T: memcpy_h2d(5.563808)
F:  4343587----T:  4360219 	 St: c0050000 Sz: 135168 	 Sm: 0 	 T: memcpy_h2d(11.230249)
F:  4343932----T:  4367604 	 St: c04c0000 Sz: 196608 	 Sm: 0 	 T: write_back(15.983795)
F:  4360219----T:  4368459 	 St: c0071000 Sz: 61440 	 Sm: 0 	 T: memcpy_h2d(5.563808)
F:  4367604----T:  4376306 	 St: c0510000 Sz: 65536 	 Sm: 0 	 T: write_back(5.875760)
F:  4368459----T:  4377161 	 St: c0150000 Sz: 65536 	 Sm: 0 	 T: memcpy_h2d(5.875760)
F:  4376306----T:  4385008 	 St: c0540000 Sz: 65536 	 Sm: 0 	 T: write_back(5.875760)
F:  4377161----T:  4379766 	 St: c0400000 Sz: 4096 	 Sm: 0 	 T: memcpy_h2d(1.758947)
F:  4379766----T:  4388006 	 St: c0401000 Sz: 61440 	 Sm: 0 	 T: memcpy_h2d(5.563808)
F:  4385008----T:  4393710 	 St: c0550000 Sz: 65536 	 Sm: 0 	 T: write_back(5.875760)
F:  4388006----T:  4404169 	 St: c0430000 Sz: 131072 	 Sm: 0 	 T: memcpy_h2d(10.913572)
F:  4393710----T:  4402412 	 St: c0300000 Sz: 65536 	 Sm: 0 	 T: write_back(5.875760)
F:  4402412----T:  4411114 	 St: c0210000 Sz: 65536 	 Sm: 0 	 T: write_back(5.875760)
F:  4404169----T:  4420332 	 St: c04f0000 Sz: 131072 	 Sm: 0 	 T: memcpy_h2d(10.913572)
F:  4411114----T:  4419816 	 St: c0220000 Sz: 65536 	 Sm: 0 	 T: write_back(5.875760)
F:  4419816----T:  4428518 	 St: c02d0000 Sz: 65536 	 Sm: 0 	 T: write_back(5.875760)
F:  4420332----T:  4436495 	 St: c0520000 Sz: 131072 	 Sm: 0 	 T: memcpy_h2d(10.913572)
F:  4428518----T:  4437220 	 St: c03c0000 Sz: 65536 	 Sm: 0 	 T: write_back(5.875760)
F:  4436495----T:  4445197 	 St: c0560000 Sz: 65536 	 Sm: 0 	 T: memcpy_h2d(5.875760)
F:  4437220----T:  4445922 	 St: c0310000 Sz: 65536 	 Sm: 0 	 T: write_back(5.875760)
F:  4445197----T:  4452977 	 St: c0200000 Sz: 57344 	 Sm: 0 	 T: memcpy_h2d(5.253207)
F:  4445922----T:  4462085 	 St: c0320000 Sz: 131072 	 Sm: 0 	 T: write_back(10.913572)
F:  4452977----T:  4455777 	 St: c020e000 Sz: 8192 	 Sm: 0 	 T: memcpy_h2d(1.890614)
F:  4455777----T:  4464479 	 St: c0230000 Sz: 65536 	 Sm: 0 	 T: memcpy_h2d(5.875760)
F:  4462085----T:  4470787 	 St: c0400000 Sz: 65536 	 Sm: 0 	 T: write_back(5.875760)
F:  4464479----T:  4488151 	 St: c0280000 Sz: 196608 	 Sm: 0 	 T: memcpy_h2d(15.983795)
F:  4470787----T:  4479489 	 St: c0030000 Sz: 65536 	 Sm: 0 	 T: write_back(5.875760)
F:  4479489----T:  4488191 	 St: c0040000 Sz: 65536 	 Sm: 0 	 T: write_back(5.875760)
F:  4488151----T:  4496853 	 St: c02c0000 Sz: 65536 	 Sm: 0 	 T: memcpy_h2d(5.875760)
F:  4488191----T:  4496893 	 St: c00a0000 Sz: 65536 	 Sm: 0 	 T: write_back(5.875760)
F:  4496853----T:  4513016 	 St: c02e0000 Sz: 131072 	 Sm: 0 	 T: memcpy_h2d(10.913572)
F:  4496893----T:  4505595 	 St: c00b0000 Sz: 65536 	 Sm: 0 	 T: write_back(5.875760)
F:  4505595----T:  4514297 	 St: c03f0000 Sz: 65536 	 Sm: 0 	 T: write_back(5.875760)
F:  4513016----T:  4536688 	 St: c0350000 Sz: 196608 	 Sm: 0 	 T: memcpy_h2d(15.983795)
F:  4514297----T:  4522999 	 St: c0430000 Sz: 65536 	 Sm: 0 	 T: write_back(5.875760)
F:  4522999----T:  4531701 	 St: c0440000 Sz: 65536 	 Sm: 0 	 T: write_back(5.875760)
F:  4531701----T:  4540403 	 St: c04f0000 Sz: 65536 	 Sm: 0 	 T: write_back(5.875760)
F:  4536688----T:  4545390 	 St: c03b0000 Sz: 65536 	 Sm: 0 	 T: memcpy_h2d(5.875760)
F:  4540403----T:  4549105 	 St: c0500000 Sz: 65536 	 Sm: 0 	 T: write_back(5.875760)
F:  4545390----T:  4561553 	 St: c03d0000 Sz: 131072 	 Sm: 0 	 T: memcpy_h2d(10.913572)
F:  4549105----T:  4557807 	 St: c0520000 Sz: 65536 	 Sm: 0 	 T: write_back(5.875760)
F:  4557807----T:  4566509 	 St: c0530000 Sz: 65536 	 Sm: 0 	 T: write_back(5.875760)
F:  4561553----T:  4564158 	 St: c0410000 Sz: 4096 	 Sm: 0 	 T: memcpy_h2d(1.758947)
F:  4564158----T:  4572398 	 St: c0411000 Sz: 61440 	 Sm: 0 	 T: memcpy_h2d(5.563808)
F:  4566509----T:  4575211 	 St: c0560000 Sz: 65536 	 Sm: 0 	 T: write_back(5.875760)
F:  4572398----T:  4648767 	 St: c0450000 Sz: 655360 	 Sm: 0 	 T: memcpy_h2d(51.565834)
F:  4575211----T:  4583913 	 St: c00c0000 Sz: 65536 	 Sm: 0 	 T: write_back(5.875760)
F:  4583913----T:  4592615 	 St: c00d0000 Sz: 65536 	 Sm: 0 	 T: write_back(5.875760)
F:  4592615----T:  4616287 	 St: c0000000 Sz: 196608 	 Sm: 0 	 T: write_back(15.983795)
F:  4616287----T:  4624989 	 St: c00e0000 Sz: 65536 	 Sm: 0 	 T: write_back(5.875760)
F:  4624989----T:  4633691 	 St: c0410000 Sz: 65536 	 Sm: 0 	 T: write_back(5.875760)
F:  4633691----T:  4642393 	 St: c0200000 Sz: 65536 	 Sm: 0 	 T: write_back(5.875760)
F:  4642393----T:  4651095 	 St: c0230000 Sz: 65536 	 Sm: 0 	 T: write_back(5.875760)
F:  4648767----T:  4657469 	 St: c0510000 Sz: 65536 	 Sm: 0 	 T: memcpy_h2d(5.875760)
F:  4651095----T:  4659797 	 St: c02f0000 Sz: 65536 	 Sm: 0 	 T: write_back(5.875760)
F:  4657469----T:  4673632 	 St: c0540000 Sz: 131072 	 Sm: 0 	 T: memcpy_h2d(10.913572)
F:  4659798----T:  4698517 	 St: c0050000 Sz: 327680 	 Sm: 0 	 T: write_back(26.143822)
F:  4673632----T:  4676237 	 St: c0210000 Sz: 4096 	 Sm: 0 	 T: memcpy_h2d(1.758947)
F:  4676237----T:  4691932 	 St: c0211000 Sz: 126976 	 Sm: 0 	 T: memcpy_h2d(10.597569)
F:  4691932----T:  4700634 	 St: c02d0000 Sz: 65536 	 Sm: 0 	 T: memcpy_h2d(5.875760)
F:  4698517----T:  4707219 	 St: c0160000 Sz: 65536 	 Sm: 0 	 T: write_back(5.875760)
F:  4700634----T:  4731827 	 St: c0300000 Sz: 262144 	 Sm: 0 	 T: memcpy_h2d(21.062120)
F:  4731827----T:  4740529 	 St: c03c0000 Sz: 65536 	 Sm: 0 	 T: memcpy_h2d(5.875760)
F:  4740529----T:  4743134 	 St: c03f0000 Sz: 4096 	 Sm: 0 	 T: memcpy_h2d(1.758947)
F:  4743134----T:  4751374 	 St: c03f1000 Sz: 61440 	 Sm: 0 	 T: memcpy_h2d(5.563808)
F:  4751374----T:  4753979 	 St: c0400000 Sz: 4096 	 Sm: 0 	 T: memcpy_h2d(1.758947)
F:  4753979----T:  4762219 	 St: c0401000 Sz: 61440 	 Sm: 0 	 T: memcpy_h2d(5.563808)
F:  4762219----T:  4778382 	 St: c0430000 Sz: 131072 	 Sm: 0 	 T: memcpy_h2d(10.913572)
F:  4778382----T:  4794545 	 St: c04f0000 Sz: 131072 	 Sm: 0 	 T: memcpy_h2d(10.913572)
F:  4794545----T:  4810708 	 St: c0520000 Sz: 131072 	 Sm: 0 	 T: memcpy_h2d(10.913572)
F:  4810708----T:  4819410 	 St: c0560000 Sz: 65536 	 Sm: 0 	 T: memcpy_h2d(5.875760)
F:  4819410----T:  4827190 	 St: c0200000 Sz: 57344 	 Sm: 0 	 T: memcpy_h2d(5.253207)
F:  4827190----T:  4829990 	 St: c020e000 Sz: 8192 	 Sm: 0 	 T: memcpy_h2d(1.890614)
F:  4829990----T:  4838692 	 St: c0230000 Sz: 65536 	 Sm: 0 	 T: memcpy_h2d(5.875760)
F:  4838692----T:  4847394 	 St: c02f0000 Sz: 65536 	 Sm: 0 	 T: memcpy_h2d(5.875760)
F:  4847394----T:  4849999 	 St: c0410000 Sz: 4096 	 Sm: 0 	 T: memcpy_h2d(1.758947)
F:  4849999----T:  4858239 	 St: c0411000 Sz: 61440 	 Sm: 0 	 T: memcpy_h2d(5.563808)
F:  5349450----T:  6696190 	 	 	 Kl: 2 	 Sm: 0 	 T: kernel_launch(909.345032)
F:  5350146----T:  5352751 	 St: c0610000 Sz: 4096 	 Sm: 0 	 T: memcpy_h2d(1.758947)
F:  5350448----T:  5359150 	 St: c0170000 Sz: 65536 	 Sm: 0 	 T: write_back(5.875760)
F:  5352751----T:  5360991 	 St: c0611000 Sz: 61440 	 Sm: 0 	 T: memcpy_h2d(5.563808)
F:  5359150----T:  5367852 	 St: c0180000 Sz: 65536 	 Sm: 0 	 T: write_back(5.875760)
F:  5360991----T:  5363596 	 St: c0000000 Sz: 4096 	 Sm: 0 	 T: memcpy_h2d(1.758947)
F:  5367852----T:  5376554 	 St: c0190000 Sz: 65536 	 Sm: 0 	 T: write_back(5.875760)
F:  5376554----T:  5392717 	 St: c01a0000 Sz: 131072 	 Sm: 0 	 T: write_back(10.913572)
F:  5392717----T:  5401419 	 St: c01c0000 Sz: 65536 	 Sm: 0 	 T: write_back(5.875760)
F:  5401419----T:  5410121 	 St: c0150000 Sz: 65536 	 Sm: 0 	 T: write_back(5.875760)
F:  5410121----T:  5418823 	 St: c0100000 Sz: 65536 	 Sm: 0 	 T: write_back(5.875760)
F:  5418823----T:  5434986 	 St: c0110000 Sz: 131072 	 Sm: 0 	 T: write_back(10.913572)
F:  5434986----T:  5443688 	 St: c0600000 Sz: 65536 	 Sm: 0 	 T: write_back(5.875760)
F:  5443688----T:  5452390 	 St: c0390000 Sz: 65536 	 Sm: 0 	 T: write_back(5.875760)
F:  5452390----T:  5461092 	 St: c0250000 Sz: 65536 	 Sm: 0 	 T: write_back(5.875760)
F:  5461092----T:  5469794 	 St: c0260000 Sz: 65536 	 Sm: 0 	 T: write_back(5.875760)
F:  5469794----T:  5583351 	 St: c0001000 Sz: 978944 	 Sm: 0 	 T: memcpy_h2d(76.675896)
F:  5469794----T:  5478496 	 St: c0300000 Sz: 65536 	 Sm: 0 	 T: write_back(5.875760)
F:  5478497----T:  5487199 	 St: c0310000 Sz: 65536 	 Sm: 0 	 T: write_back(5.875760)
F:  5583351----T:  5592053 	 St: c0160000 Sz: 65536 	 Sm: 0 	 T: memcpy_h2d(5.875760)
F:  5650115----T:  5652720 	 St: c00f0000 Sz: 4096 	 Sm: 0 	 T: memcpy_h2d(1.758947)
F:  5650115----T:  5666278 	 St: c0320000 Sz: 131072 	 Sm: 0 	 T: write_back(10.913572)
F:  5666278----T:  5674980 	 St: c0270000 Sz: 65536 	 Sm: 0 	 T: write_back(5.875760)
F:  5674980----T:  5705703 	 St: c00f1000 Sz: 258048 	 Sm: 0 	 T: memcpy_h2d(20.744766)
F:  5674980----T:  5683682 	 St: c0280000 Sz: 65536 	 Sm: 0 	 T: write_back(5.875760)
F:  5683682----T:  5692384 	 St: c0290000 Sz: 65536 	 Sm: 0 	 T: write_back(5.875760)
F:  5692384----T:  5701086 	 St: c02a0000 Sz: 65536 	 Sm: 0 	 T: write_back(5.875760)
F:  5701086----T:  5709788 	 St: c03a0000 Sz: 65536 	 Sm: 0 	 T: write_back(5.875760)
F:  5705703----T:  5714405 	 St: c0150000 Sz: 65536 	 Sm: 0 	 T: memcpy_h2d(5.875760)
F:  5709788----T:  5718490 	 St: c0380000 Sz: 65536 	 Sm: 0 	 T: write_back(5.875760)
F:  5718490----T:  5727192 	 St: c03b0000 Sz: 65536 	 Sm: 0 	 T: write_back(5.875760)
F:  5727192----T:  5773439 	 St: c0170000 Sz: 393216 	 Sm: 0 	 T: memcpy_h2d(31.226873)
F:  5727192----T:  5758385 	 St: c0200000 Sz: 262144 	 Sm: 0 	 T: write_back(21.062120)
F:  5758385----T:  5789578 	 St: c02c0000 Sz: 262144 	 Sm: 0 	 T: write_back(21.062120)
F:  5773439----T:  5776044 	 St: c0130000 Sz: 4096 	 Sm: 0 	 T: memcpy_h2d(1.758947)
F:  5776044----T:  5784284 	 St: c0131000 Sz: 61440 	 Sm: 0 	 T: memcpy_h2d(5.563808)
F:  5788681----T:  5791286 	 St: c0140000 Sz: 4096 	 Sm: 0 	 T: memcpy_h2d(1.758947)
F:  5789578----T:  5813250 	 St: c0350000 Sz: 196608 	 Sm: 0 	 T: write_back(15.983795)
F:  5791286----T:  5799526 	 St: c0141000 Sz: 61440 	 Sm: 0 	 T: memcpy_h2d(5.563808)
F:  5813250----T:  5844443 	 St: c03c0000 Sz: 262144 	 Sm: 0 	 T: write_back(21.062120)
F:  5844375----T:  5846980 	 St: c01d0000 Sz: 4096 	 Sm: 0 	 T: memcpy_h2d(1.758947)
F:  5846980----T:  5855220 	 St: c01d1000 Sz: 61440 	 Sm: 0 	 T: memcpy_h2d(5.563808)
F:  5859641----T:  5862246 	 St: c01e0000 Sz: 4096 	 Sm: 0 	 T: memcpy_h2d(1.758947)
F:  5862246----T:  5870486 	 St: c01e1000 Sz: 61440 	 Sm: 0 	 T: memcpy_h2d(5.563808)
F:  5874983----T:  5877588 	 St: c01f0000 Sz: 4096 	 Sm: 0 	 T: memcpy_h2d(1.758947)
F:  5877588----T:  5885828 	 St: c01f1000 Sz: 61440 	 Sm: 0 	 T: memcpy_h2d(5.563808)
F:  5890244----T:  5892849 	 St: c0200000 Sz: 4096 	 Sm: 0 	 T: memcpy_h2d(1.758947)
F:  5892849----T:  5901089 	 St: c0201000 Sz: 61440 	 Sm: 0 	 T: memcpy_h2d(5.563808)
F:  5905294----T:  5907899 	 St: c0210000 Sz: 4096 	 Sm: 0 	 T: memcpy_h2d(1.758947)
F:  5907899----T:  5916139 	 St: c0211000 Sz: 61440 	 Sm: 0 	 T: memcpy_h2d(5.563808)
F:  5919392----T:  5921997 	 St: c0220000 Sz: 4096 	 Sm: 0 	 T: memcpy_h2d(1.758947)
F:  5919392----T:  5928094 	 St: c0470000 Sz: 65536 	 Sm: 0 	 T: write_back(5.875760)
F:  5921997----T:  5937692 	 St: c0221000 Sz: 126976 	 Sm: 0 	 T: memcpy_h2d(10.597569)
F:  5928094----T:  5936796 	 St: c0480000 Sz: 65536 	 Sm: 0 	 T: write_back(5.875760)
F:  5936796----T:  5945498 	 St: c0490000 Sz: 65536 	 Sm: 0 	 T: write_back(5.875760)
F:  5937692----T:  5983939 	 St: c0250000 Sz: 393216 	 Sm: 0 	 T: memcpy_h2d(31.226873)
F:  5945498----T:  5961661 	 St: c04a0000 Sz: 131072 	 Sm: 0 	 T: write_back(10.913572)
F:  5961661----T:  5977824 	 St: c0400000 Sz: 131072 	 Sm: 0 	 T: write_back(10.913572)
F:  5977824----T:  6009017 	 St: c0430000 Sz: 262144 	 Sm: 0 	 T: write_back(21.062120)
F:  5983939----T:  6045246 	 St: c02c0000 Sz: 524288 	 Sm: 0 	 T: memcpy_h2d(41.395679)
F:  6009017----T:  6040210 	 St: c04c0000 Sz: 262144 	 Sm: 0 	 T: write_back(21.062120)
F:  6040210----T:  6048912 	 St: c0500000 Sz: 65536 	 Sm: 0 	 T: write_back(5.875760)
F:  6048912----T:  6132812 	 St: c0350000 Sz: 720896 	 Sm: 0 	 T: memcpy_h2d(56.650913)
F:  6048912----T:  6095159 	 St: c0510000 Sz: 393216 	 Sm: 0 	 T: write_back(31.226873)
F:  6132812----T:  6135417 	 St: c0240000 Sz: 4096 	 Sm: 0 	 T: memcpy_h2d(1.758947)
F:  6135417----T:  6143657 	 St: c0241000 Sz: 61440 	 Sm: 0 	 T: memcpy_h2d(5.563808)
F:  6178259----T:  6180864 	 St: c02b0000 Sz: 4096 	 Sm: 0 	 T: memcpy_h2d(1.758947)
F:  6178259----T:  6186961 	 St: c0000000 Sz: 65536 	 Sm: 0 	 T: write_back(5.875760)
F:  6180864----T:  6189104 	 St: c02b1000 Sz: 61440 	 Sm: 0 	 T: memcpy_h2d(5.563808)
F:  6233940----T:  6236545 	 St: c0340000 Sz: 4096 	 Sm: 0 	 T: memcpy_h2d(1.758947)
F:  6233940----T:  6242642 	 St: c0010000 Sz: 65536 	 Sm: 0 	 T: write_back(5.875760)
F:  6236545----T:  6244785 	 St: c0341000 Sz: 61440 	 Sm: 0 	 T: memcpy_h2d(5.563808)
F:  6304576----T:  6307181 	 St: c0400000 Sz: 4096 	 Sm: 0 	 T: memcpy_h2d(1.758947)
F:  6304576----T:  6320739 	 St: c0020000 Sz: 131072 	 Sm: 0 	 T: write_back(10.913572)
F:  6307181----T:  6322876 	 St: c0401000 Sz: 126976 	 Sm: 0 	 T: memcpy_h2d(10.597569)
F:  6320739----T:  6351932 	 St: c0040000 Sz: 262144 	 Sm: 0 	 T: write_back(21.062120)
F:  6351932----T:  6413239 	 St: c0080000 Sz: 524288 	 Sm: 0 	 T: write_back(41.395679)
F:  6413239----T:  6564928 	 St: c0430000 Sz: 1310720 	 Sm: 0 	 T: memcpy_h2d(102.423363)
F:  6413239----T:  6534799 	 St: c0100000 Sz: 1048576 	 Sm: 0 	 T: write_back(82.079674)
F:  6564928----T:  6567533 	 St: c0420000 Sz: 4096 	 Sm: 0 	 T: memcpy_h2d(1.758947)
F:  6567533----T:  6575773 	 St: c0421000 Sz: 61440 	 Sm: 0 	 T: memcpy_h2d(5.563808)
F:  6680863----T:  6683468 	 St: c0570000 Sz: 4096 	 Sm: 0 	 T: memcpy_h2d(1.758947)
F:  6683468----T:  6691708 	 St: c0571000 Sz: 61440 	 Sm: 0 	 T: memcpy_h2d(5.563808)
F:  6696190----T:  6698795 	 St: 0 Sz: 4096 	 Sm: 0 	 T: device_sync(1.758947)
F:  6696190----T:  6699276 	 St: 0 Sz: 12288 	 Sm: 0 	 T: device_sync(2.083727)
Tot_prefetch_time: 0(cycle), 0.000000(us)
Tot_kernel_exec_time: 6251890(cycle), 4221.397461(us)
Tot_kernel_exec_time_and_fault_time: 19714180(cycle), 13311.397461(us)
Tot_memcpy_h2d_time: 5369306(cycle), 3625.459717(us)
Tot_memcpy_d2h_time: 0(cycle), 0.000000(us)
Tot_memcpy_time: 5369306(cycle), 3625.459717(us)
Tot_devicesync_time: 5691(cycle), 3.842674(us)
Tot_writeback_time: 4702320(cycle), 3175.097900(us)
Tot_dma_time: 0(cycle), 0.000000(us)
Tot_memcpy_d2h_sync_wb_time: 4708011(cycle), 3178.940674(us)
GPGPU-Sim: *** exit detected ***
