

        *** GPGPU-Sim Simulator Version 3.2.2  [build gpgpu-sim_git-commit-32a5e88e7f0bd0281e1f3b1056e517909662bd85_modified_0] ***


GPGPU-Sim PTX: simulation mode 0 (can change with PTX_SIM_MODE_FUNC environment variable:
               1=functional simulation only, 0=detailed performance simulator)
GPGPU-Sim: Configuration options:

-network_mode                           1 # Interconnection network mode
-inter_config_file   config_fermi_islip.icnt # Interconnection network config file
-gpgpu_ptx_use_cuobjdump                    1 # Use cuobjdump to extract ptx and sass from binaries
-gpgpu_experimental_lib_support                    0 # Try to extract code from cuda libraries [Broken because of unknown cudaGetExportTable]
-gpgpu_ptx_convert_to_ptxplus                    0 # Convert SASS (native ISA) to ptxplus and run ptxplus
-gpgpu_ptx_force_max_capability                   20 # Force maximum compute capability
-gpgpu_ptx_inst_debug_to_file                    0 # Dump executed instructions' debug information to file
-gpgpu_ptx_inst_debug_file       inst_debug.txt # Executed instructions' debug output file
-gpgpu_ptx_inst_debug_thread_uid                    1 # Thread UID for executed instructions' debug output
-gpgpu_simd_model                       1 # 1 = post-dominator
-gpgpu_shader_core_pipeline              2048:32 # shader core pipeline config, i.e., {<nthread>:<warpsize>}
-gpgpu_tex_cache:l1  16:128:24,L:R:m:N:L,F:128:4,128:2 # per-shader L1 texture cache  (READ-ONLY) config  {<nsets>:<bsize>:<assoc>,<rep>:<wr>:<alloc>:<wr_alloc>,<mshr>:<N>:<merge>,<mq>:<rf>}
-gpgpu_const_cache:l1 128:64:2,L:R:f:N:L,A:2:64,4 # per-shader L1 constant memory cache  (READ-ONLY) config  {<nsets>:<bsize>:<assoc>,<rep>:<wr>:<alloc>:<wr_alloc>,<mshr>:<N>:<merge>,<mq>} 
-gpgpu_cache:il1     8:128:4,L:R:f:N:L,A:2:48,4 # shader L1 instruction cache config  {<nsets>:<bsize>:<assoc>,<rep>:<wr>:<alloc>:<wr_alloc>,<mshr>:<N>:<merge>,<mq>} 
-gpgpu_cache:dl1     64:128:6,L:L:m:N:H,A:128:8,8 # per-shader L1 data cache config  {<nsets>:<bsize>:<assoc>,<rep>:<wr>:<alloc>:<wr_alloc>,<mshr>:<N>:<merge>,<mq> | none}
-gpgpu_cache:dl1PrefL1                 none # per-shader L1 data cache config  {<nsets>:<bsize>:<assoc>,<rep>:<wr>:<alloc>:<wr_alloc>,<mshr>:<N>:<merge>,<mq> | none}
-gpgpu_cache:dl1PrefShared                 none # per-shader L1 data cache config  {<nsets>:<bsize>:<assoc>,<rep>:<wr>:<alloc>:<wr_alloc>,<mshr>:<N>:<merge>,<mq> | none}
-gmem_skip_L1D                          1 # global memory access skip L1D cache (implements -Xptxas -dlcm=cg, default=no skip)
-gpgpu_perfect_mem                      0 # enable perfect memory mode (no cache miss)
-n_regfile_gating_group                    4 # group of lanes that should be read/written together)
-gpgpu_clock_gated_reg_file                    0 # enable clock gated reg file for power calculations
-gpgpu_clock_gated_lanes                    0 # enable clock gated lanes for power calculations
-gpgpu_shader_registers                65536 # Number of registers per shader core. Limits number of concurrent CTAs. (default 8192)
-gpgpu_shader_cta                      32 # Maximum number of concurrent CTAs in shader (default 8)
-gpgpu_num_cta_barriers                   16 # Maximum number of named barriers per CTA (default 16)
-gpgpu_n_clusters                      28 # number of processing clusters
-gpgpu_n_cores_per_cluster                    1 # number of simd cores per cluster
-gpgpu_n_cluster_ejection_buffer_size                    8 # number of packets in ejection buffer
-gpgpu_n_ldst_response_buffer_size                    2 # number of response packets in ld/st unit ejection buffer
-gpgpu_shmem_size                   16384 # Size of shared memory per shader core (default 16kB)
-gpgpu_shmem_size                   98304 # Size of shared memory per shader core (default 16kB)
-gpgpu_shmem_size_PrefL1                16384 # Size of shared memory per shader core (default 16kB)
-gpgpu_shmem_size_PrefShared                16384 # Size of shared memory per shader core (default 16kB)
-gpgpu_shmem_num_banks                   32 # Number of banks in the shared memory in each shader core (default 16)
-gpgpu_shmem_limited_broadcast                    0 # Limit shared memory to do one broadcast per cycle (default on)
-gpgpu_shmem_warp_parts                    1 # Number of portions a warp is divided into for shared memory bank conflict check 
-gpgpu_warpdistro_shader                   -1 # Specify which shader core to collect the warp size distribution from
-gpgpu_warp_issue_shader                    0 # Specify which shader core to collect the warp issue distribution from
-gpgpu_local_mem_map                    1 # Mapping from local memory space address to simulated GPU physical address space (default = enabled)
-gpgpu_num_reg_banks                   32 # Number of register banks (default = 8)
-gpgpu_reg_bank_use_warp_id                    0 # Use warp ID in mapping registers to banks (default = off)
-gpgpu_operand_collector_num_units_sp                   20 # number of collector units (default = 4)
-gpgpu_operand_collector_num_units_sfu                    4 # number of collector units (default = 4)
-gpgpu_operand_collector_num_units_mem                    8 # number of collector units (default = 2)
-gpgpu_operand_collector_num_units_gen                    0 # number of collector units (default = 0)
-gpgpu_operand_collector_num_in_ports_sp                    4 # number of collector unit in ports (default = 1)
-gpgpu_operand_collector_num_in_ports_sfu                    1 # number of collector unit in ports (default = 1)
-gpgpu_operand_collector_num_in_ports_mem                    1 # number of collector unit in ports (default = 1)
-gpgpu_operand_collector_num_in_ports_gen                    0 # number of collector unit in ports (default = 0)
-gpgpu_operand_collector_num_out_ports_sp                    4 # number of collector unit in ports (default = 1)
-gpgpu_operand_collector_num_out_ports_sfu                    1 # number of collector unit in ports (default = 1)
-gpgpu_operand_collector_num_out_ports_mem                    1 # number of collector unit in ports (default = 1)
-gpgpu_operand_collector_num_out_ports_gen                    0 # number of collector unit in ports (default = 0)
-gpgpu_coalesce_arch                   13 # Coalescing arch (default = 13, anything else is off for now)
-gpgpu_num_sched_per_core                    2 # Number of warp schedulers per core
-gpgpu_max_insn_issue_per_warp                    2 # Max number of instructions that can be issued per warp in one cycle by scheduler
-gpgpu_simt_core_sim_order                    1 # Select the simulation order of cores in a cluster (0=Fix, 1=Round-Robin)
-gpgpu_pipeline_widths        4,1,1,4,1,1,6 # Pipeline widths ID_OC_SP,ID_OC_SFU,ID_OC_MEM,OC_EX_SP,OC_EX_SFU,OC_EX_MEM,EX_WB
-gpgpu_num_sp_units                     4 # Number of SP units (default=1)
-gpgpu_num_sfu_units                    1 # Number of SF units (default=1)
-gpgpu_num_mem_units                    1 # Number if ldst units (default=1) WARNING: not hooked up to anything
-gpgpu_scheduler                      gto # Scheduler configuration: < lrr | gto | two_level_active > If two_level_active:<num_active_warps>:<inner_prioritization>:<outer_prioritization>For complete list of prioritization values see shader.h enum scheduler_prioritization_typeDefault: gto
-gpgpu_concurrent_kernel_sm                    0 # Support concurrent kernels on a SM (default = disabled)
-tlb_size                            4096 # Number of tlb entries per SM.
-gpgpu_dram_scheduler                    1 # 0 = fifo, 1 = FR-FCFS (defaul)
-gpgpu_dram_partition_queues              8:8:8:8 # i2$:$2d:d2$:$2i
-l2_ideal                               0 # Use a ideal L2 cache that always hit
-gpgpu_cache:dl2     64:128:16,L:B:m:W:L,A:1024:1024,4:0,32 # unified banked L2 data cache config  {<nsets>:<bsize>:<assoc>,<rep>:<wr>:<alloc>:<wr_alloc>,<mshr>:<N>:<merge>,<mq>}
-gpgpu_cache:dl2_texture_only                    0 # L2 cache used for texture only
-gpgpu_n_mem                           11 # number of memory modules (e.g. memory controllers) in gpu
-gpgpu_n_sub_partition_per_mchannel                    2 # number of memory subpartition in each memory module
-gpgpu_n_mem_per_ctrlr                    1 # number of memory chips per memory controller
-gpgpu_memlatency_stat                   14 # track and display latency statistics 0x2 enables MC, 0x4 enables queue logs
-gpgpu_frfcfs_dram_sched_queue_size                   64 # 0 = unlimited (default); # entries per chip
-gpgpu_dram_return_queue_size                  116 # 0 = unlimited (default); # entries per chip
-gpgpu_dram_buswidth                    4 # default = 4 bytes (8 bytes per cycle at DDR)
-gpgpu_dram_burst_length                    8 # Burst length of each DRAM request (default = 4 data bus cycle)
-dram_data_command_freq_ratio                    4 # Frequency ratio between DRAM data bus and command bus (default = 2 times, i.e. DDR)
-gpgpu_dram_timing_opt nbk=16:CCD=2:RRD=6:RCD=12:RAS=28:RP=12:RC=40: CL=12:WL=4:CDLR=5:WR=12:nbkgrp=1:CCDL=0:RTPL=0 # DRAM timing parameters = {nbk:tCCD:tRRD:tRCD:tRAS:tRP:tRC:CL:WL:tCDLR:tWR:nbkgrp:tCCDL:tRTPL}
-rop_latency                          120 # ROP queue latency (default 85)
-dram_latency                         100 # DRAM latency (default 30)
-gpgpu_mem_addr_mapping dramid@8;00000000.00000000.00000000.00000000.0000RRRR.RRRRRRRR.RBBBCCCC.BCCSSSSS # mapping memory address to dram model {dramid@<start bit>;<memory address map>}
-gpgpu_mem_addr_test                    0 # run sweep test to check address mapping for aliased address
-gpgpu_mem_address_mask                    1 # 0 = old addressing mask, 1 = new addressing mask, 2 = new add. mask + flipped bank sel and chip sel bits
-gpuwattch_xml_file  gpuwattch_geforcegtx1080ti.xml # GPUWattch XML file
-power_simulation_enabled                    1 # Turn on power simulator (1=On, 0=Off)
-power_per_cycle_dump                    0 # Dump detailed power output each cycle
-power_trace_enabled                    0 # produce a file for the power trace (1=On, 0=Off)
-power_trace_zlevel                     6 # Compression level of the power trace output log (0=no comp, 9=highest)
-steady_power_levels_enabled                    0 # produce a file for the steady power levels (1=On, 0=Off)
-steady_state_definition                  8:4 # allowed deviation:number of samples
-gpgpu_max_cycle                        0 # terminates gpu simulation early (0 = no limit)
-gpgpu_max_insn                         0 # terminates gpu simulation early (0 = no limit)
-gpgpu_max_cta                          0 # terminates gpu simulation early (0 = no limit)
-gpgpu_runtime_stat                   500 # display runtime statistics such as dram utilization {<freq>:<flag>}
-liveness_message_freq                    1 # Minimum number of seconds between simulation liveness messages (0 = always print)
-gpgpu_flush_l1_cache                    0 # Flush L1 cache at the end of each kernel call
-gpgpu_flush_l2_cache                    0 # Flush L2 cache at the end of each kernel call
-gpgpu_deadlock_detect                    0 # Stop the simulation at deadlock (1=on (default), 0=off)
-gpgpu_ptx_instruction_classification                    0 # if enabled will classify ptx instruction types per kernel (Max 255 kernels now)
-gpgpu_ptx_sim_mode                     0 # Select between Performance (default) or Functional simulation (1)
-gpgpu_clock_domains 1481.0:2962.0:1481.0:2750.0 # Clock Domain Frequencies in MhZ {<Core Clock>:<ICNT Clock>:<L2 Clock>:<DRAM Clock>}
-gpgpu_max_concurrent_kernel                    8 # maximum kernels that can run concurrently on GPU
-gpgpu_cflog_interval                    0 # Interval between each snapshot in control flow logger
-visualizer_enabled                     0 # Turn on visualizer output (1=On, 0=Off)
-visualizer_outputfile                 NULL # Specifies the output log file for visualizer
-visualizer_zlevel                      6 # Compression level of the visualizer output log (0=no comp, 9=highest)
-trace_enabled                          0 # Turn on traces
-trace_components                    none # comma seperated list of traces to enable. Complete list found in trace_streams.tup. Default none
-trace_sampling_core                    0 # The core which is printed using CORE_DPRINTF. Default 0
-trace_sampling_memory_partition                   -1 # The memory partition which is printed using MEMPART_DPRINTF. Default -1 (i.e. all)
-gddr_size                            8MB # Size of GDDR in MB/GB.(GLOBAL_HEAP_START, GLOBAL_HEAP_START + gddr_size) would be used for unmanged memory, (GLOBAL_HEAP_START + gddr_size, GLOBAL_HEAP_START + gddr_size*2) would be used for managed memory. 
-page_table_walk_latency                  100 # Average page table walk latency (in core cycle).
-eviction_policy                        0 # Select page eviction policy
-invalidate_clean                       0 # Should directly invalidate clean pages
-reserve_accessed_page_percent                    0 # Percentage of accessed pages reserved from eviction in hope that they will be accessed in next iteration.
-percentage_of_free_page_buffer                    0 # Percentage of free page buffer to trigger the page eviction.
-page_size                            4KB # GDDR page size, only 4KB/2MB avaliable.
-pcie_bandwidth                  16.0GB/s # PCI-e bandwidth per direction, in GB/s.
-enable_dma                             0 # Enable direct access to CPU memory
-multiply_dma_penalty                    2 # Oversubscription Multiplicative Penalty Factor for Adaptive DMA
-migrate_threshold                      8 # Access counter threshold for migrating the page from cpu to gpu
-sim_prof_enable                        1 # Enable gpgpu-sim profiler
-hardware_prefetch                      1 # Select gpgpu-sim hardware prefetcher
-hwprefetch_oversub                     1 # Select gpgpu-sim hardware prefetcher under over-subscription
-page_fault_latency                 66645 # Average fault latency (in core cycle).
-enable_accurate_simulation                    0 # Enable page fault functional simulation.
-enable_smart_runtime                    1 # Enable access pattern detection, policy engine, and adaptive memory management.
-enable_ptx_file_line_stats                    1 # Turn on PTX source line statistic profiling. (1 = On)
-ptx_line_stats_filename gpgpu_inst_stats.txt # Output file for PTX source line statistics.
-gpgpu_kernel_launch_latency               222150 # Kernel launch latency in cycles. Default: 0
-gpgpu_cdp_enabled                      0 # Turn on CDP
-save_embedded_ptx                      0 # saves ptx files embedded in binary as <n>.ptx
-keep                                   0 # keep intermediate files created by GPGPU-Sim when interfacing with external programs
-gpgpu_ptx_save_converted_ptxplus                    0 # Saved converted ptxplus to a file
-ptx_opcode_latency_int         4,13,4,5,145 # Opcode latencies for integers <ADD,MAX,MUL,MAD,DIV>Default 1,1,19,25,145
-ptx_opcode_latency_fp          4,13,4,5,39 # Opcode latencies for single precision floating points <ADD,MAX,MUL,MAD,DIV>Default 1,1,1,1,30
-ptx_opcode_latency_dp         8,19,8,8,330 # Opcode latencies for double precision floating points <ADD,MAX,MUL,MAD,DIV>Default 8,8,8,8,335
-ptx_opcode_initiation_int            1,2,2,2,8 # Opcode initiation intervals for integers <ADD,MAX,MUL,MAD,DIV>Default 1,1,4,4,32
-ptx_opcode_initiation_fp            1,2,1,1,4 # Opcode initiation intervals for single precision floating points <ADD,MAX,MUL,MAD,DIV>Default 1,1,1,1,5
-ptx_opcode_initiation_dp          1,2,1,1,130 # Opcode initiation intervals for double precision floating points <ADD,MAX,MUL,MAD,DIV>Default 8,8,8,8,130
-cdp_latency         7200,8000,100,12000,1600 # CDP API latency <cudaStreamCreateWithFlags, cudaGetParameterBufferV2_init_perWarp, cudaGetParameterBufferV2_perKernel, cudaLaunchDeviceV2_init_perWarp, cudaLaunchDevicV2_perKernel>Default 7200,8000,100,12000,1600
DRAM Timing Options:
nbk                                    16 # number of banks
CCD                                     2 # column to column delay
RRD                                     6 # minimal delay between activation of rows in different banks
RCD                                    12 # row to column delay
RAS                                    28 # time needed to activate row
RP                                     12 # time needed to precharge (deactivate) row
RC                                     40 # row cycle time
CDLR                                    5 # switching from write to read (changes tWTR)
WR                                     12 # last data-in to row precharge
CL                                     12 # CAS latency
WL                                      4 # Write latency
nbkgrp                                  1 # number of bank groups
CCDL                                    0 # column to column delay between accesses to different bank groups
RTPL                                    0 # read to precharge delay between accesses to different bank groups
Total number of memory sub partition = 22
addr_dec_mask[CHIP]  = 0000000000000000 	high:64 low:0
addr_dec_mask[BK]    = 0000000000007080 	high:15 low:7
addr_dec_mask[ROW]   = 000000000fff8000 	high:28 low:15
addr_dec_mask[COL]   = 0000000000000f7f 	high:12 low:0
addr_dec_mask[BURST] = 000000000000001f 	high:5 low:0
sub_partition_id_mask = 0000000000000080
GPGPU-Sim uArch: clock freqs: 1481000000.000000:2962000000.000000:1481000000.000000:2750000000.000000
GPGPU-Sim uArch: clock periods: 0.00000000067521944632:0.00000000033760972316:0.00000000067521944632:0.00000000036363636364
*** Initializing Memory Statistics ***
GPGPU-Sim uArch: interconnect node map (shaderID+MemID to icntID)
GPGPU-Sim uArch: Memory nodes ID start from index: 28
GPGPU-Sim uArch:    0   1   2   3   4   5   6
GPGPU-Sim uArch:    7   8   9  10  11  12  13
GPGPU-Sim uArch:   14  15  16  17  18  19  20
GPGPU-Sim uArch:   21  22  23  24  25  26  27
GPGPU-Sim uArch:   28  29  30  31  32  33  34
GPGPU-Sim uArch:   35  36  37  38  39  40  41
GPGPU-Sim uArch:   42  43  44  45  46  47  48
GPGPU-Sim uArch:   49
GPGPU-Sim uArch: interconnect node reverse map (icntID to shaderID+MemID)
GPGPU-Sim uArch: Memory nodes start from ID: 28
GPGPU-Sim uArch:    0   1   2   3   4   5   6
GPGPU-Sim uArch:    7   8   9  10  11  12  13
GPGPU-Sim uArch:   14  15  16  17  18  19  20
GPGPU-Sim uArch:   21  22  23  24  25  26  27
GPGPU-Sim uArch:   28  29  30  31  32  33  34
GPGPU-Sim uArch:   35  36  37  38  39  40  41
GPGPU-Sim uArch:   42  43  44  45  46  47  48
GPGPU-Sim uArch:   49
2b59e7f154a78be7f2b7a3cbd56bd03f  /root/gpgpu-sim_UVMSmart/benchmarks/Managed/hotspot/hotspot
GPGPU-Sim uArch: performance model initialization complete.
GPGPU-Sim PTX: __cudaRegisterFatBinary, fat_cubin_handle = 1, filename=default
self exe links to: /root/gpgpu-sim_UVMSmart/benchmarks/Managed/hotspot/hotspot
Running md5sum using "md5sum /root/gpgpu-sim_UVMSmart/benchmarks/Managed/hotspot/hotspot "
Parsing file _cuobjdump_complete_output_IcsLeQ
######### cuobjdump parser ########
## Adding new section ELF
Adding arch: sm_20
Adding identifier: default
## Adding new section ELF
Adding arch: sm_20
Adding identifier: default
## Adding new section PTX
Adding ptx filename: _cuobjdump_1.ptx
Adding arch: sm_20
Adding identifier: default
Done parsing!!!
GPGPU-Sim PTX: __cudaRegisterFunction _Z14calculate_tempiPfS_S_iiiiffffff : hostFun 0x0x401ae2, fat_cubin_handle = 1
GPGPU-Sim PTX: allocating shared region for "_Z14calculate_tempiPfS_S_iiiiffffff$__cuda_local_var_16165_39_non_const_temp_on_cuda" from 0x0 to 0x400 (shared memory space)
GPGPU-Sim PTX: allocating shared region for "_Z14calculate_tempiPfS_S_iiiiffffff$__cuda_local_var_16166_39_non_const_power_on_cuda" from 0x400 to 0x800 (shared memory space)
GPGPU-Sim PTX: allocating shared region for "_Z14calculate_tempiPfS_S_iiiiffffff$__cuda_local_var_16167_39_non_const_temp_t" from 0x800 to 0xc00 (shared memory space)
GPGPU-Sim PTX: instruction assembly for function '_Z14calculate_tempiPfS_S_iiiiffffff'...   done.
GPGPU-Sim PTX: finding reconvergence points for '_Z14calculate_tempiPfS_S_iiiiffffff'...
GPGPU-Sim PTX: Finding dominators for '_Z14calculate_tempiPfS_S_iiiiffffff'...
GPGPU-Sim PTX: Finding immediate dominators for '_Z14calculate_tempiPfS_S_iiiiffffff'...
GPGPU-Sim PTX: Finding postdominators for '_Z14calculate_tempiPfS_S_iiiiffffff'...
GPGPU-Sim PTX: Finding immediate postdominators for '_Z14calculate_tempiPfS_S_iiiiffffff'...
GPGPU-Sim PTX: pre-decoding instructions for '_Z14calculate_tempiPfS_S_iiiiffffff'...
GPGPU-Sim PTX: reconvergence points for _Z14calculate_tempiPfS_S_iiiiffffff...
GPGPU-Sim PTX:  1 (potential) branch divergence @  PC=0x118 (_1.ptx:82) @!%p7 bra BB0_2;
GPGPU-Sim PTX:    immediate post dominator      @  PC=0x1b8 (_1.ptx:106) bar.sync 0;
GPGPU-Sim PTX:  2 (potential) branch divergence @  PC=0x120 (_1.ptx:83) bra.uni BB0_1;
GPGPU-Sim PTX:    immediate post dominator      @  PC=0x128 (_1.ptx:86) mad.lo.s32 %r27, %r1, %r10, %r2;
GPGPU-Sim PTX:  3 (potential) branch divergence @  PC=0x1c8 (_1.ptx:108) @%p8 bra BB0_11;
GPGPU-Sim PTX:    immediate post dominator      @  PC=0x5b0 (_1.ptx:247) and.b16 %rs7, %rs8, 255;
GPGPU-Sim PTX:  4 (potential) branch divergence @  PC=0x338 (_1.ptx:157) @!%p15 bra BB0_7;
GPGPU-Sim PTX:    immediate post dominator      @  PC=0x538 (_1.ptx:226) bar.sync 0;
GPGPU-Sim PTX:  5 (potential) branch divergence @  PC=0x340 (_1.ptx:158) bra.uni BB0_5;
GPGPU-Sim PTX:    immediate post dominator      @  PC=0x348 (_1.ptx:161) setp.gt.s32%p16, %r23, %r6;
GPGPU-Sim PTX:  6 (potential) branch divergence @  PC=0x3d0 (_1.ptx:178) @%p28 bra BB0_7;
GPGPU-Sim PTX:    immediate post dominator      @  PC=0x538 (_1.ptx:226) bar.sync 0;
GPGPU-Sim PTX:  7 (potential) branch divergence @  PC=0x548 (_1.ptx:228) @%p31 bra BB0_11;
GPGPU-Sim PTX:    immediate post dominator      @  PC=0x5b0 (_1.ptx:247) and.b16 %rs7, %rs8, 255;
GPGPU-Sim PTX:  8 (potential) branch divergence @  PC=0x558 (_1.ptx:231) @%p32 bra BB0_10;
GPGPU-Sim PTX:    immediate post dominator      @  PC=0x590 (_1.ptx:241) bar.sync 0;
GPGPU-Sim PTX:  9 (potential) branch divergence @  PC=0x5a8 (_1.ptx:244) @%p33 bra BB0_4;
GPGPU-Sim PTX:    immediate post dominator      @  PC=0x5b0 (_1.ptx:247) and.b16 %rs7, %rs8, 255;
GPGPU-Sim PTX: 10 (potential) branch divergence @  PC=0x5c0 (_1.ptx:249) @%p34 bra BB0_13;
GPGPU-Sim PTX:    immediate post dominator      @  PC=0x620 (_1.ptx:264) ret;
GPGPU-Sim PTX: ... end of reconvergence points for _Z14calculate_tempiPfS_S_iiiiffffff
GPGPU-Sim PTX: ... done pre-decoding instructions for '_Z14calculate_tempiPfS_S_iiiiffffff'.
GPGPU-Sim PTX: finished parsing EMBEDDED .ptx file _1.ptx
Adding _cuobjdump_1.ptx with cubin handle 1
GPGPU-Sim PTX: extracting embedded .ptx to temporary file "_ptx_XYQ6hH"
Running: cat _ptx_XYQ6hH | sed 's/.version 1.5/.version 1.4/' | sed 's/, texmode_independent//' | sed 's/\(\.extern \.const\[1\] .b8 \w\+\)\[\]/\1\[1\]/' | sed 's/const\[.\]/const\[0\]/g' > _ptx2_Y97sly
GPGPU-Sim PTX: generating ptxinfo using "$CUDA_INSTALL_PATH/bin/ptxas --gpu-name=sm_20 -v _ptx2_Y97sly --output-file  /dev/null 2> _ptx_XYQ6hHinfo"
GPGPU-Sim PTX: Kernel '_Z14calculate_tempiPfS_S_iiiiffffff' : regs=34, lmem=0, smem=3072, cmem=120
GPGPU-Sim PTX: removing ptxinfo using "rm -f _ptx_XYQ6hH _ptx2_Y97sly _ptx_XYQ6hHinfo"
GPGPU-Sim PTX: loading globals with explicit initializers... 
GPGPU-Sim PTX: finished loading globals (0 bytes total).
GPGPU-Sim PTX: loading constants with explicit initializers...  done.
WG size of kernel = 16 X 16
pyramidHeight: 2
gridSize: [1024, 1024]
border:[2, 2]
blockGrid:[86, 86]
targetBlock:[12, 12]
Start computing the transient temperature

GPGPU-Sim PTX: cudaLaunch for 0x0x401ae2 (mode=performance simulation) on stream 0
GPGPU-Sim PTX: pushing kernel '_Z14calculate_tempiPfS_S_iiiiffffff' to stream 0, gridDim= (86,86,1) blockDim = (16,16,1) 
GPGPU-Sim uArch: Shader 1 bind to kernel 1 '_Z14calculate_tempiPfS_S_iiiiffffff'
GPGPU-Sim uArch: CTA/core = 7, limited by: regs
GPGPU-Sim uArch: Shader 2 bind to kernel 1 '_Z14calculate_tempiPfS_S_iiiiffffff'
GPGPU-Sim uArch: Shader 3 bind to kernel 1 '_Z14calculate_tempiPfS_S_iiiiffffff'
GPGPU-Sim uArch: Shader 4 bind to kernel 1 '_Z14calculate_tempiPfS_S_iiiiffffff'
GPGPU-Sim uArch: Shader 5 bind to kernel 1 '_Z14calculate_tempiPfS_S_iiiiffffff'
GPGPU-Sim uArch: Shader 6 bind to kernel 1 '_Z14calculate_tempiPfS_S_iiiiffffff'
GPGPU-Sim uArch: Shader 7 bind to kernel 1 '_Z14calculate_tempiPfS_S_iiiiffffff'
GPGPU-Sim uArch: Shader 8 bind to kernel 1 '_Z14calculate_tempiPfS_S_iiiiffffff'
GPGPU-Sim uArch: Shader 9 bind to kernel 1 '_Z14calculate_tempiPfS_S_iiiiffffff'
GPGPU-Sim uArch: Shader 10 bind to kernel 1 '_Z14calculate_tempiPfS_S_iiiiffffff'
GPGPU-Sim uArch: Shader 11 bind to kernel 1 '_Z14calculate_tempiPfS_S_iiiiffffff'
GPGPU-Sim uArch: Shader 12 bind to kernel 1 '_Z14calculate_tempiPfS_S_iiiiffffff'
GPGPU-Sim uArch: Shader 13 bind to kernel 1 '_Z14calculate_tempiPfS_S_iiiiffffff'
GPGPU-Sim uArch: Shader 14 bind to kernel 1 '_Z14calculate_tempiPfS_S_iiiiffffff'
GPGPU-Sim uArch: Shader 15 bind to kernel 1 '_Z14calculate_tempiPfS_S_iiiiffffff'
GPGPU-Sim uArch: Shader 16 bind to kernel 1 '_Z14calculate_tempiPfS_S_iiiiffffff'
GPGPU-Sim uArch: Shader 17 bind to kernel 1 '_Z14calculate_tempiPfS_S_iiiiffffff'
GPGPU-Sim uArch: Shader 18 bind to kernel 1 '_Z14calculate_tempiPfS_S_iiiiffffff'
GPGPU-Sim uArch: Shader 19 bind to kernel 1 '_Z14calculate_tempiPfS_S_iiiiffffff'
GPGPU-Sim uArch: Shader 20 bind to kernel 1 '_Z14calculate_tempiPfS_S_iiiiffffff'
GPGPU-Sim uArch: Shader 21 bind to kernel 1 '_Z14calculate_tempiPfS_S_iiiiffffff'
GPGPU-Sim uArch: Shader 22 bind to kernel 1 '_Z14calculate_tempiPfS_S_iiiiffffff'
GPGPU-Sim uArch: Shader 23 bind to kernel 1 '_Z14calculate_tempiPfS_S_iiiiffffff'
GPGPU-Sim uArch: Shader 24 bind to kernel 1 '_Z14calculate_tempiPfS_S_iiiiffffff'
GPGPU-Sim uArch: Shader 25 bind to kernel 1 '_Z14calculate_tempiPfS_S_iiiiffffff'
GPGPU-Sim uArch: Shader 26 bind to kernel 1 '_Z14calculate_tempiPfS_S_iiiiffffff'
GPGPU-Sim uArch: Shader 27 bind to kernel 1 '_Z14calculate_tempiPfS_S_iiiiffffff'
GPGPU-Sim uArch: Shader 0 bind to kernel 1 '_Z14calculate_tempiPfS_S_iiiiffffff'
GPGPU-Sim uArch: Shader 1 bind to kernel 1 '_Z14calculate_tempiPfS_S_iiiiffffff'
GPGPU-Sim uArch: Shader 2 bind to kernel 1 '_Z14calculate_tempiPfS_S_iiiiffffff'
GPGPU-Sim uArch: Shader 3 bind to kernel 1 '_Z14calculate_tempiPfS_S_iiiiffffff'
GPGPU-Sim uArch: Shader 4 bind to kernel 1 '_Z14calculate_tempiPfS_S_iiiiffffff'
GPGPU-Sim uArch: Shader 7 bind to kernel 1 '_Z14calculate_tempiPfS_S_iiiiffffff'
GPGPU-Sim uArch: Shader 13 bind to kernel 1 '_Z14calculate_tempiPfS_S_iiiiffffff'
GPGPU-Sim uArch: Shader 15 bind to kernel 1 '_Z14calculate_tempiPfS_S_iiiiffffff'
GPGPU-Sim uArch: Shader 17 bind to kernel 1 '_Z14calculate_tempiPfS_S_iiiiffffff'
GPGPU-Sim uArch: Shader 18 bind to kernel 1 '_Z14calculate_tempiPfS_S_iiiiffffff'
GPGPU-Sim uArch: Shader 21 bind to kernel 1 '_Z14calculate_tempiPfS_S_iiiiffffff'
GPGPU-Sim uArch: Shader 24 bind to kernel 1 '_Z14calculate_tempiPfS_S_iiiiffffff'
GPGPU-Sim uArch: Shader 25 bind to kernel 1 '_Z14calculate_tempiPfS_S_iiiiffffff'
GPGPU-Sim uArch: Shader 27 bind to kernel 1 '_Z14calculate_tempiPfS_S_iiiiffffff'
GPGPU-Sim uArch: Shader 0 bind to kernel 1 '_Z14calculate_tempiPfS_S_iiiiffffff'
GPGPU-Sim uArch: Shader 14 bind to kernel 1 '_Z14calculate_tempiPfS_S_iiiiffffff'
GPGPU-Sim uArch: Shader 15 bind to kernel 1 '_Z14calculate_tempiPfS_S_iiiiffffff'
GPGPU-Sim uArch: Shader 18 bind to kernel 1 '_Z14calculate_tempiPfS_S_iiiiffffff'
GPGPU-Sim uArch: Shader 22 bind to kernel 1 '_Z14calculate_tempiPfS_S_iiiiffffff'
GPGPU-Sim uArch: Shader 23 bind to kernel 1 '_Z14calculate_tempiPfS_S_iiiiffffff'
GPGPU-Sim uArch: Shader 27 bind to kernel 1 '_Z14calculate_tempiPfS_S_iiiiffffff'
GPGPU-Sim uArch: Shader 4 bind to kernel 1 '_Z14calculate_tempiPfS_S_iiiiffffff'
GPGPU-Sim uArch: Shader 8 bind to kernel 1 '_Z14calculate_tempiPfS_S_iiiiffffff'
GPGPU-Sim uArch: Shader 11 bind to kernel 1 '_Z14calculate_tempiPfS_S_iiiiffffff'
GPGPU-Sim uArch: Shader 12 bind to kernel 1 '_Z14calculate_tempiPfS_S_iiiiffffff'
GPGPU-Sim uArch: Shader 13 bind to kernel 1 '_Z14calculate_tempiPfS_S_iiiiffffff'
GPGPU-Sim uArch: Shader 15 bind to kernel 1 '_Z14calculate_tempiPfS_S_iiiiffffff'
GPGPU-Sim uArch: Shader 20 bind to kernel 1 '_Z14calculate_tempiPfS_S_iiiiffffff'
GPGPU-Sim uArch: Shader 24 bind to kernel 1 '_Z14calculate_tempiPfS_S_iiiiffffff'
GPGPU-Sim uArch: Shader 4 bind to kernel 1 '_Z14calculate_tempiPfS_S_iiiiffffff'
GPGPU-Sim uArch: Shader 6 bind to kernel 1 '_Z14calculate_tempiPfS_S_iiiiffffff'
GPGPU-Sim uArch: Shader 12 bind to kernel 1 '_Z14calculate_tempiPfS_S_iiiiffffff'
GPGPU-Sim uArch: Shader 13 bind to kernel 1 '_Z14calculate_tempiPfS_S_iiiiffffff'
GPGPU-Sim uArch: Shader 22 bind to kernel 1 '_Z14calculate_tempiPfS_S_iiiiffffff'
GPGPU-Sim uArch: Shader 24 bind to kernel 1 '_Z14calculate_tempiPfS_S_iiiiffffff'
GPGPU-Sim uArch: Shader 9 bind to kernel 1 '_Z14calculate_tempiPfS_S_iiiiffffff'
GPGPU-Sim uArch: Shader 10 bind to kernel 1 '_Z14calculate_tempiPfS_S_iiiiffffff'
GPGPU-Sim uArch: Shader 11 bind to kernel 1 '_Z14calculate_tempiPfS_S_iiiiffffff'
GPGPU-Sim uArch: Shader 12 bind to kernel 1 '_Z14calculate_tempiPfS_S_iiiiffffff'
GPGPU-Sim uArch: Shader 13 bind to kernel 1 '_Z14calculate_tempiPfS_S_iiiiffffff'
GPGPU-Sim uArch: Shader 15 bind to kernel 1 '_Z14calculate_tempiPfS_S_iiiiffffff'
GPGPU-Sim uArch: Shader 16 bind to kernel 1 '_Z14calculate_tempiPfS_S_iiiiffffff'
GPGPU-Sim uArch: Shader 18 bind to kernel 1 '_Z14calculate_tempiPfS_S_iiiiffffff'
GPGPU-Sim uArch: Shader 19 bind to kernel 1 '_Z14calculate_tempiPfS_S_iiiiffffff'
GPGPU-Sim uArch: Shader 20 bind to kernel 1 '_Z14calculate_tempiPfS_S_iiiiffffff'
GPGPU-Sim uArch: Shader 22 bind to kernel 1 '_Z14calculate_tempiPfS_S_iiiiffffff'
GPGPU-Sim uArch: Shader 24 bind to kernel 1 '_Z14calculate_tempiPfS_S_iiiiffffff'
GPGPU-Sim uArch: Shader 26 bind to kernel 1 '_Z14calculate_tempiPfS_S_iiiiffffff'
GPGPU-Sim uArch: Shader 27 bind to kernel 1 '_Z14calculate_tempiPfS_S_iiiiffffff'
GPGPU-Sim uArch: Shader 0 bind to kernel 1 '_Z14calculate_tempiPfS_S_iiiiffffff'
GPGPU-Sim uArch: Shader 1 bind to kernel 1 '_Z14calculate_tempiPfS_S_iiiiffffff'
GPGPU-Sim uArch: Shader 4 bind to kernel 1 '_Z14calculate_tempiPfS_S_iiiiffffff'
GPGPU-Sim uArch: Shader 6 bind to kernel 1 '_Z14calculate_tempiPfS_S_iiiiffffff'
GPGPU-Sim uArch: Shader 7 bind to kernel 1 '_Z14calculate_tempiPfS_S_iiiiffffff'
GPGPU-Sim uArch: Shader 9 bind to kernel 1 '_Z14calculate_tempiPfS_S_iiiiffffff'
GPGPU-Sim uArch: Shader 14 bind to kernel 1 '_Z14calculate_tempiPfS_S_iiiiffffff'
GPGPU-Sim uArch: Shader 17 bind to kernel 1 '_Z14calculate_tempiPfS_S_iiiiffffff'
GPGPU-Sim uArch: Shader 21 bind to kernel 1 '_Z14calculate_tempiPfS_S_iiiiffffff'
GPGPU-Sim uArch: Shader 23 bind to kernel 1 '_Z14calculate_tempiPfS_S_iiiiffffff'
GPGPU-Sim uArch: Shader 25 bind to kernel 1 '_Z14calculate_tempiPfS_S_iiiiffffff'
GPGPU-Sim uArch: Shader 3 bind to kernel 1 '_Z14calculate_tempiPfS_S_iiiiffffff'
GPGPU-Sim uArch: Shader 5 bind to kernel 1 '_Z14calculate_tempiPfS_S_iiiiffffff'
GPGPU-Sim uArch: Shader 7 bind to kernel 1 '_Z14calculate_tempiPfS_S_iiiiffffff'
GPGPU-Sim uArch: Shader 22 bind to kernel 1 '_Z14calculate_tempiPfS_S_iiiiffffff'
GPGPU-Sim uArch: Shader 27 bind to kernel 1 '_Z14calculate_tempiPfS_S_iiiiffffff'
Destroy streams for kernel 1: size 0
kernel_name = _Z14calculate_tempiPfS_S_iiiiffffff 
kernel_launch_uid = 1 
gpu_sim_cycle = 1859570
gpu_sim_insn = 415466464
gpu_ipc =     223.4207
gpu_tot_sim_cycle = 2081720
gpu_tot_sim_insn = 415466464
gpu_tot_ipc =     199.5785
gpu_tot_issued_cta = 7396
max_total_param_size = 0
gpu_stall_dramfull = 50362
gpu_stall_icnt2sh    = 607447
partiton_reqs_in_parallel = 40860178
partiton_reqs_in_parallel_total    = 0
partiton_level_parallism =      21.9729
partiton_level_parallism_total  =      19.6281
partiton_reqs_in_parallel_util = 40860178
partiton_reqs_in_parallel_util_total    = 0
gpu_sim_cycle_parition_util = 1858946
gpu_tot_sim_cycle_parition_util    = 0
partiton_level_parallism_util =      21.9803
partiton_level_parallism_util_total  =      21.9803
partiton_replys_in_parallel = 456444
partiton_replys_in_parallel_total    = 0
L2_BW  =      23.2654 GB/Sec
L2_BW_total  =      20.7826 GB/Sec
gpu_total_sim_rate=171114

========= Core cache stats =========
L1I_cache:
	L1I_total_cache_accesses = 7740000
	L1I_total_cache_misses = 8688
	L1I_total_cache_miss_rate = 0.0011
	L1I_total_cache_pending_hits = 0
	L1I_total_cache_reservation_fails = 6846
L1D_cache:
	L1D_cache_core[0]: Access = 0, Miss = 0, Miss_rate = -nan, Pending_hits = 0, Reservation_fails = 0
	L1D_cache_core[1]: Access = 0, Miss = 0, Miss_rate = -nan, Pending_hits = 0, Reservation_fails = 0
	L1D_cache_core[2]: Access = 0, Miss = 0, Miss_rate = -nan, Pending_hits = 0, Reservation_fails = 0
	L1D_cache_core[3]: Access = 0, Miss = 0, Miss_rate = -nan, Pending_hits = 0, Reservation_fails = 0
	L1D_cache_core[4]: Access = 0, Miss = 0, Miss_rate = -nan, Pending_hits = 0, Reservation_fails = 0
	L1D_cache_core[5]: Access = 0, Miss = 0, Miss_rate = -nan, Pending_hits = 0, Reservation_fails = 0
	L1D_cache_core[6]: Access = 0, Miss = 0, Miss_rate = -nan, Pending_hits = 0, Reservation_fails = 0
	L1D_cache_core[7]: Access = 0, Miss = 0, Miss_rate = -nan, Pending_hits = 0, Reservation_fails = 0
	L1D_cache_core[8]: Access = 0, Miss = 0, Miss_rate = -nan, Pending_hits = 0, Reservation_fails = 0
	L1D_cache_core[9]: Access = 0, Miss = 0, Miss_rate = -nan, Pending_hits = 0, Reservation_fails = 0
	L1D_cache_core[10]: Access = 0, Miss = 0, Miss_rate = -nan, Pending_hits = 0, Reservation_fails = 0
	L1D_cache_core[11]: Access = 0, Miss = 0, Miss_rate = -nan, Pending_hits = 0, Reservation_fails = 0
	L1D_cache_core[12]: Access = 0, Miss = 0, Miss_rate = -nan, Pending_hits = 0, Reservation_fails = 0
	L1D_cache_core[13]: Access = 0, Miss = 0, Miss_rate = -nan, Pending_hits = 0, Reservation_fails = 0
	L1D_cache_core[14]: Access = 0, Miss = 0, Miss_rate = -nan, Pending_hits = 0, Reservation_fails = 0
	L1D_cache_core[15]: Access = 0, Miss = 0, Miss_rate = -nan, Pending_hits = 0, Reservation_fails = 0
	L1D_cache_core[16]: Access = 0, Miss = 0, Miss_rate = -nan, Pending_hits = 0, Reservation_fails = 0
	L1D_cache_core[17]: Access = 0, Miss = 0, Miss_rate = -nan, Pending_hits = 0, Reservation_fails = 0
	L1D_cache_core[18]: Access = 0, Miss = 0, Miss_rate = -nan, Pending_hits = 0, Reservation_fails = 0
	L1D_cache_core[19]: Access = 0, Miss = 0, Miss_rate = -nan, Pending_hits = 0, Reservation_fails = 0
	L1D_cache_core[20]: Access = 0, Miss = 0, Miss_rate = -nan, Pending_hits = 0, Reservation_fails = 0
	L1D_cache_core[21]: Access = 0, Miss = 0, Miss_rate = -nan, Pending_hits = 0, Reservation_fails = 0
	L1D_cache_core[22]: Access = 0, Miss = 0, Miss_rate = -nan, Pending_hits = 0, Reservation_fails = 0
	L1D_cache_core[23]: Access = 0, Miss = 0, Miss_rate = -nan, Pending_hits = 0, Reservation_fails = 0
	L1D_cache_core[24]: Access = 0, Miss = 0, Miss_rate = -nan, Pending_hits = 0, Reservation_fails = 0
	L1D_cache_core[25]: Access = 0, Miss = 0, Miss_rate = -nan, Pending_hits = 0, Reservation_fails = 0
	L1D_cache_core[26]: Access = 0, Miss = 0, Miss_rate = -nan, Pending_hits = 0, Reservation_fails = 0
	L1D_cache_core[27]: Access = 0, Miss = 0, Miss_rate = -nan, Pending_hits = 0, Reservation_fails = 0
	L1D_total_cache_accesses = 0
	L1D_total_cache_misses = 0
	L1D_total_cache_pending_hits = 0
	L1D_total_cache_reservation_fails = 0
	L1D_cache_data_port_util = 0.000
	L1D_cache_fill_port_util = 0.000
L1C_cache:
	L1C_total_cache_accesses = 769184
	L1C_total_cache_misses = 2195
	L1C_total_cache_miss_rate = 0.0029
	L1C_total_cache_pending_hits = 0
	L1C_total_cache_reservation_fails = 4886
L1T_cache:
	L1T_total_cache_accesses = 0
	L1T_total_cache_misses = 0
	L1T_total_cache_pending_hits = 0
	L1T_total_cache_reservation_fails = 0

Total_core_cache_stats:
	Total_core_cache_stats_breakdown[GLOBAL_ACC_R][HIT] = 0
	Total_core_cache_stats_breakdown[GLOBAL_ACC_R][HIT_RESERVED] = 0
	Total_core_cache_stats_breakdown[GLOBAL_ACC_R][MISS] = 0
	Total_core_cache_stats_breakdown[GLOBAL_ACC_R][RESERVATION_FAIL] = 0
	Total_core_cache_stats_breakdown[LOCAL_ACC_R][HIT] = 0
	Total_core_cache_stats_breakdown[LOCAL_ACC_R][HIT_RESERVED] = 0
	Total_core_cache_stats_breakdown[LOCAL_ACC_R][MISS] = 0
	Total_core_cache_stats_breakdown[LOCAL_ACC_R][RESERVATION_FAIL] = 0
	Total_core_cache_stats_breakdown[CONST_ACC_R][HIT] = 766989
	Total_core_cache_stats_breakdown[CONST_ACC_R][HIT_RESERVED] = 0
	Total_core_cache_stats_breakdown[CONST_ACC_R][MISS] = 2195
	Total_core_cache_stats_breakdown[CONST_ACC_R][RESERVATION_FAIL] = 4886
	Total_core_cache_stats_breakdown[TEXTURE_ACC_R][HIT] = 0
	Total_core_cache_stats_breakdown[TEXTURE_ACC_R][HIT_RESERVED] = 0
	Total_core_cache_stats_breakdown[TEXTURE_ACC_R][MISS] = 0
	Total_core_cache_stats_breakdown[TEXTURE_ACC_R][RESERVATION_FAIL] = 0
	Total_core_cache_stats_breakdown[GLOBAL_ACC_W][HIT] = 0
	Total_core_cache_stats_breakdown[GLOBAL_ACC_W][HIT_RESERVED] = 0
	Total_core_cache_stats_breakdown[GLOBAL_ACC_W][MISS] = 0
	Total_core_cache_stats_breakdown[GLOBAL_ACC_W][RESERVATION_FAIL] = 0
	Total_core_cache_stats_breakdown[LOCAL_ACC_W][HIT] = 0
	Total_core_cache_stats_breakdown[LOCAL_ACC_W][HIT_RESERVED] = 0
	Total_core_cache_stats_breakdown[LOCAL_ACC_W][MISS] = 0
	Total_core_cache_stats_breakdown[LOCAL_ACC_W][RESERVATION_FAIL] = 0
	Total_core_cache_stats_breakdown[L1_WRBK_ACC][HIT] = 0
	Total_core_cache_stats_breakdown[L1_WRBK_ACC][HIT_RESERVED] = 0
	Total_core_cache_stats_breakdown[L1_WRBK_ACC][MISS] = 0
	Total_core_cache_stats_breakdown[L1_WRBK_ACC][RESERVATION_FAIL] = 0
	Total_core_cache_stats_breakdown[L2_WRBK_ACC][HIT] = 0
	Total_core_cache_stats_breakdown[L2_WRBK_ACC][HIT_RESERVED] = 0
	Total_core_cache_stats_breakdown[L2_WRBK_ACC][MISS] = 0
	Total_core_cache_stats_breakdown[L2_WRBK_ACC][RESERVATION_FAIL] = 0
	Total_core_cache_stats_breakdown[INST_ACC_R][HIT] = 7731312
	Total_core_cache_stats_breakdown[INST_ACC_R][HIT_RESERVED] = 0
	Total_core_cache_stats_breakdown[INST_ACC_R][MISS] = 8688
	Total_core_cache_stats_breakdown[INST_ACC_R][RESERVATION_FAIL] = 6846
	Total_core_cache_stats_breakdown[L1_WR_ALLOC_R][HIT] = 0
	Total_core_cache_stats_breakdown[L1_WR_ALLOC_R][HIT_RESERVED] = 0
	Total_core_cache_stats_breakdown[L1_WR_ALLOC_R][MISS] = 0
	Total_core_cache_stats_breakdown[L1_WR_ALLOC_R][RESERVATION_FAIL] = 0
	Total_core_cache_stats_breakdown[L2_WR_ALLOC_R][HIT] = 0
	Total_core_cache_stats_breakdown[L2_WR_ALLOC_R][HIT_RESERVED] = 0
	Total_core_cache_stats_breakdown[L2_WR_ALLOC_R][MISS] = 0
	Total_core_cache_stats_breakdown[L2_WR_ALLOC_R][RESERVATION_FAIL] = 0
	Total_core_cache_stats_breakdown[CONST_ACC_R][TOTAL_ACCESS] = 769184
	Total_core_cache_stats_breakdown[INST_ACC_R][TOTAL_ACCESS] = 7740000
Shader 0 warp_id issue ditsribution:
warp_id:
0, 1, 2, 3, 4, 5, 6, 7, 8, 9, 10, 11, 12, 13, 14, 15, 16, 17, 18, 19, 20, 21, 22, 23, 24, 25, 26, 27, 28, 29, 30, 31, 32, 33, 34, 35, 36, 37, 38, 39, 40, 41, 42, 43, 44, 45, 46, 47, 48, 49, 50, 51, 52, 53, 54, 55, 
distro:
9984, 12592, 12613, 12430, 12470, 12424, 12463, 10009, 9729, 12266, 12296, 12115, 12151, 12108, 12143, 9748, 9485, 11964, 11995, 11957, 11988, 11952, 11986, 9583, 9305, 11648, 11661, 11492, 11516, 11485, 11515, 9256, 9548, 11947, 11972, 11787, 11827, 11787, 11828, 9485, 9309, 11626, 11660, 11476, 11519, 11479, 11514, 9250, 9308, 11642, 11666, 11478, 11514, 11467, 11511, 9248, 
gpgpu_n_tot_thrd_icount = 485326208
gpgpu_n_tot_w_icount = 15166444
gpgpu_n_stall_shd_mem = 391833
gpgpu_n_mem_read_local = 0
gpgpu_n_mem_write_local = 0
gpgpu_n_mem_read_global = 346456
gpgpu_n_mem_write_global = 109568
gpgpu_n_mem_texture = 0
gpgpu_n_mem_const = 56
gpgpu_n_load_insn  = 3720992
gpgpu_n_store_insn = 1048576
gpgpu_n_shmem_insn = 24940324
gpgpu_n_tex_insn = 0
gpgpu_n_const_mem_insn = 0
gpgpu_n_param_mem_insn = 24613888
gpgpu_n_shmem_bkconflict = 0
gpgpu_n_cache_bkconflict = 0
gpgpu_n_intrawarp_mshr_merge = 0
gpgpu_n_cmem_portconflict = 4886
gpgpu_stall_shd_mem[c_mem][bk_conf] = 4886
gpgpu_stall_shd_mem[c_mem][mshr_rc] = 0
gpgpu_stall_shd_mem[c_mem][icnt_rc] = 0
gpgpu_stall_shd_mem[c_mem][data_port_stall] = 0
gpgpu_stall_shd_mem[t_mem][mshr_rc] = 0
gpgpu_stall_shd_mem[t_mem][icnt_rc] = 0
gpgpu_stall_shd_mem[t_mem][data_port_stall] = 0
gpgpu_stall_shd_mem[s_mem][bk_conf] = 0
gpgpu_stall_shd_mem[gl_mem][bk_conf] = 0
gpgpu_stall_shd_mem[gl_mem][coal_stall] = 320207
gpgpu_stall_shd_mem[gl_mem][data_port_stall] = 0
gpgpu_stall_shd_mem[g_mem_ld][mshr_rc] = 0
gpgpu_stall_shd_mem[g_mem_ld][icnt_rc] = 66740
gpgpu_stall_shd_mem[g_mem_ld][wb_icnt_rc] = 0
gpgpu_stall_shd_mem[g_mem_ld][wb_rsrv_fail] = 0
gpgpu_stall_shd_mem[g_mem_st][mshr_rc] = 0
gpgpu_stall_shd_mem[g_mem_st][icnt_rc] = 0
gpgpu_stall_shd_mem[g_mem_st][wb_icnt_rc] = 0
gpgpu_stall_shd_mem[g_mem_st][wb_rsrv_fail] = 0
gpgpu_stall_shd_mem[l_mem_ld][mshr_rc] = 0
gpgpu_stall_shd_mem[l_mem_ld][icnt_rc] = 0
gpgpu_stall_shd_mem[l_mem_ld][wb_icnt_rc] = 0
gpgpu_stall_shd_mem[l_mem_ld][wb_rsrv_fail] = 0
gpgpu_stall_shd_mem[l_mem_st][mshr_rc] = 0
gpgpu_stall_shd_mem[l_mem_st][icnt_rc] = 0
gpgpu_stall_shd_mem[l_mem_ld][wb_icnt_rc] = 0
gpgpu_stall_shd_mem[l_mem_ld][wb_rsrv_fail] = 0
gpu_reg_bank_conflict_stalls = 0
Warp Occupancy Distribution:
Stall:536570	W0_Idle:42319463	W0_Scoreboard:48528332	W1:0	W2:0	W3:0	W4:0	W5:8500	W6:0	W7:0	W8:28160	W9:0	W10:25600	W11:0	W12:12958	W13:8500	W14:714000	W15:0	W16:0	W17:0	W18:0	W19:0	W20:0	W21:0	W22:0	W23:0	W24:3517792	W25:0	W26:25600	W27:0	W28:3287550	W29:0	W30:0	W31:0	W32:7537784
traffic_breakdown_coretomem[CONST_ACC_R] = 448 {8:56,}
traffic_breakdown_coretomem[GLOBAL_ACC_R] = 2771648 {8:346456,}
traffic_breakdown_coretomem[GLOBAL_ACC_W] = 7856128 {40:44032,72:44032,136:21504,}
traffic_breakdown_coretomem[INST_ACC_R] = 2912 {8:364,}
traffic_breakdown_memtocore[CONST_ACC_R] = 4032 {72:56,}
traffic_breakdown_memtocore[GLOBAL_ACC_R] = 28785856 {40:114576,72:114576,136:117304,}
traffic_breakdown_memtocore[GLOBAL_ACC_W] = 876544 {8:109568,}
traffic_breakdown_memtocore[INST_ACC_R] = 49504 {136:364,}
maxmrqlatency = 540 
maxdqlatency = 0 
maxmflatency = 243881 
averagemflatency = 5249 
max_icnt2mem_latency = 243557 
max_icnt2sh_latency = 2081719 
mrq_lat_table:110219 	6013 	6095 	12082 	12980 	12086 	10072 	9704 	9284 	9 	0 	0 	0 	0 	0 	0 	0 	0 	0 	0 	0 	0 	0 	0 	0 	0 	0 	0 	0 	0 	0 	0 	
dq_lat_table:0 	0 	0 	0 	0 	0 	0 	0 	0 	0 	0 	0 	0 	0 	0 	0 	0 	0 	0 	0 	0 	0 	0 	0 	0 	0 	0 	0 	0 	0 	0 	0 	
mf_lat_table:0 	0 	0 	0 	0 	0 	0 	279216 	132990 	2026 	234 	2284 	1525 	3645 	7765 	18466 	5544 	2385 	0 	0 	0 	0 	0 	0 	0 	0 	0 	0 	0 	0 	0 	0 	
icnt2mem_lat_table:0 	0 	232236 	47476 	4196 	1086 	122246 	7158 	198 	1 	423 	2094 	1529 	3754 	8053 	18065 	5544 	2385 	0 	0 	0 	0 	0 	0 	
icnt2sh_lat_table:0 	0 	103806 	147628 	87000 	7999 	79 	0 	0 	0 	0 	0 	0 	0 	0 	0 	0 	0 	12840 	14659 	82069 	0 	0 	0 	
mf_lat_pw_table:0 	0 	0 	0 	0 	0 	0 	380 	68 	3 	3 	13 	6 	12 	21 	31 	6 	2 	0 	0 	0 	0 	0 	0 	0 	0 	0 	0 	0 	0 	0 	0 	
maximum concurrent accesses to same row:
dram[0]:        69        70        69        70        66        67        69        70        69        70        69        70        68        66        69        70 
dram[1]:        69        70        69        70        66        63        69        70        69        70        69        70        68        65        69        70 
dram[2]:        69        70        69        70        65        65        69        70        69        70        69        70        66        66        69        70 
dram[3]:        69        70        69        70        67        63        69        70        69        70        69        70        64        66        69        70 
dram[4]:        69        70        69        70        65        66        69        70        69        70        69        70        66        65        69        70 
dram[5]:        69        70        69        70        63        66        69        70        69        70        69        70        67        69        69        70 
dram[6]:        69        70        69        70        68        64        69        70        69        70        69        70        69        66        69        70 
dram[7]:        69        70        69        70        64        65        69        70        69        70        69        70        66        66        69        70 
dram[8]:        69        70        69        70        66        64        69        70        69        70        69        70        65        66        69        70 
dram[9]:        69        70        69        70        67        63        69        70        69        70        69        70        64        66        69        70 
dram[10]:        69        70        69        70        64        67        69        70        69        70        69        70        67        66        69        70 
maximum service time to same row:
dram[0]:    315084    315160    439159    439377    256635    256501    446224    446246    377430    377334    376792    248610    310790    310787    309508    309586 
dram[1]:    315222    315540    439342    439339    437578    437417    446302    446288    377548    377494    248539    248913    310775    310771    309517    309360 
dram[2]:    315184    315535    439147    439121    436987    436751    446179    446214    377556    377419    248618    248343    310784    310782    308946    308591 
dram[3]:    315227    315200    439123    439041    315689    256693    446238    446249    377310    377428    248263    248208    310658    310694    309500    309512 
dram[4]:    315432    315693    438993    439329    256542    256699    446199    446009    377542    377553    248148    248217    310726    310710    309514    309598 
dram[5]:    315084    315160    439243    439238    256636    256483    446070    446374    377452    377398    248157    251804    310788    310788    309519    309578 
dram[6]:    315255    315577    439163    439153    437579    437299    446212    446187    377430    377400    376319    245760    310778    310775    309514    309362 
dram[7]:    313703    315550    439117    439008    437368    437413    446121    446301    377446    377268    245675    245665    310781    310784    308996    308569 
dram[8]:    315216    315244    438969    438907    256532    256576    446264    446226    377329    377370    245566    245576    310657    310681    309491    309556 
dram[9]:    315427    315544    438989    439333    256425    256563    446223    445953    377284    377301    245579    245743    310606    310705    309514    309593 
dram[10]:    320475    319825    439238    439239    256823    256448    446038    446375    377262    377270    245712    249367    310732    310720    309529    309585 
average row accesses per activate:
dram[0]: 13.189874 12.839506 10.926316 10.595960 10.590000 10.696970 11.183674 10.679611  9.491228 10.064220 10.705882  9.530435 11.372340 11.389474 12.642858 10.878788 
dram[1]: 13.853333 13.329114 11.064516 12.069767 12.000000 10.795918 11.858696 10.686275 10.130841 10.466666 10.533980 10.523809 11.835165 12.215909 13.481012 12.250000 
dram[2]: 13.813334 14.774648 11.444445 11.600000 12.000000 10.560000 11.869565 13.475610 10.323810 11.081633 12.157304 11.402061 13.132530 12.705882 13.531646 12.658824 
dram[3]: 15.815385 16.666666 11.326087 12.792683 12.376471 11.478261 13.228915 13.204820 10.910000 12.431818 12.639535 12.325843 12.482759 12.616279 12.206897 11.977528 
dram[4]: 13.840000 13.684211 10.225491 10.765306 11.311828 12.678572 12.471265 13.132530 10.533980 11.224490 11.484211 12.213483 13.419753 13.035714 13.705129 11.706522 
dram[5]: 12.093023 12.658537 10.166667 10.714286  9.796296 10.339806 11.421053 11.040404  9.642858  9.743362  9.963303 10.637255 12.623529 11.521276 10.887755 10.500000 
dram[6]: 13.346154 12.104651 12.457831 12.139535 11.586957  9.859813 11.484211 11.515789 10.093458 10.490385 11.526316 10.813725 11.602151 12.000000 13.337500 12.000000 
dram[7]: 15.072464 15.085714 12.621951 12.707317 10.806123 10.570000 12.976191 13.475610 10.578431 11.142858 12.494253 11.371134 11.956044 12.146068 13.197531 12.647058 
dram[8]: 14.956522 13.649351 11.466666 13.087500 11.365591 10.550000 12.894117 13.555555 10.205607 11.132653 12.581395 13.083333 12.306818 12.488372 12.867470 12.511628 
dram[9]: 13.813334 15.072464 10.551021 10.372549 10.845361 10.630000 12.551724 13.886076 11.224490 11.956522 12.213483 11.989011 11.760870 12.122222 12.666667 11.446809 
dram[10]: 12.975000 13.307693 10.176471 11.010417 10.570000 11.010309 12.858824 11.956044 10.295238 10.129630 11.354167 10.900000 12.809524 11.782609 11.597826 10.663366 
average row locality = 188544/16034 = 11.759012
number of total memory accesses made:
dram[0]:         0         0         0         0         0         0         0         0         0         0         0         0         0         0         0         0 
dram[1]:         0         0         0         0         0         0         0         0         0         0         0         0         0         0         0         0 
dram[2]:         0         0         0         0         0         0         0         0         0         0         0         0         0         0         0         0 
dram[3]:         0         0         0         0         0         0         0         0         0         0         0         0         0         0         0         0 
dram[4]:         0         0         0         0         0         0         0         0         0         0         0         0         0         0         0         0 
dram[5]:         0         0         0         0         0         0         0         0         0         0         0         0         0         0         0         0 
dram[6]:         0         0         0         0         0         0         0         0         0         0         0         0         0         0         0         0 
dram[7]:         0         0         0         0         0         0         0         0         0         0         0         0         0         0         0         0 
dram[8]:         0         0         0         0         0         0         0         0         0         0         0         0         0         0         0         0 
dram[9]:         0         0         0         0         0         0         0         0         0         0         0         0         0         0         0         0 
dram[10]:         0         0         0         0         0         0         0         0         0         0         0         0         0         0         0         0 
total accesses: 0
min_bank_accesses = 0!
min_chip_accesses = 0!
number of total read accesses:
dram[0]:       561       560       560       560       560       560       560       560       560       560       548       548       560       560       560       560 
dram[1]:       560       560       560       560       560       560       560       560       560       560       549       549       560       560       560       560 
dram[2]:       560       560       560       560       560       560       560       560       560       560       549       549       560       560       560       560 
dram[3]:       560       560       560       560       560       560       560       560       560       560       549       549       560       560       560       560 
dram[4]:       560       560       560       560       560       560       560       560       560       560       549       549       560       560       561       561 
dram[5]:       560       560       560       560       560       560       560       560       560       560       548       548       560       560       561       561 
dram[6]:       560       560       560       560       560       560       560       560       560       560       548       548       560       560       561       561 
dram[7]:       560       560       560       560       560       560       560       560       560       560       548       548       560       560       561       561 
dram[8]:       560       560       560       560       560       560       560       560       560       560       548       548       560       560       561       561 
dram[9]:       560       560       560       560       560       560       560       560       560       560       548       548       560       560       561       561 
dram[10]:       560       560       560       560       560       560       560       560       560       560       548       548       560       560       561       560 
total reads: 98318
bank skew: 561/548 = 1.02
chip skew: 8940/8937 = 1.00
number of total write accesses:
dram[0]:       481       480       478       489       499       499       536       540       522       537       544       548       509       522       502       517 
dram[1]:       479       493       469       478       496       498       531       530       524       539       536       556       517       515       505       518 
dram[2]:       476       489       470       484       496       496       532       545       524       526       533       557       530       520       509       516 
dram[3]:       468       490       482       489       492       496       538       536       531       534       538       548       526       525       502       506 
dram[4]:       478       480       483       495       492       505       525       530       525       540       542       538       527       535       508       516 
dram[5]:       480       478       477       490       498       505       525       533       520       541       538       537       513       523       506       510 
dram[6]:       481       481       474       484       506       495       531       534       520       531       547       555       519       520       506       519 
dram[7]:       480       496       475       482       499       497       530       545       519       532       539       555       528       521       508       514 
dram[8]:       472       491       472       487       497       495       536       538       532       531       534       551       523       514       507       515 
dram[9]:       476       480       474       498       492       503       532       537       540       540       539       543       522       531       503       515 
dram[10]:       478       478       478       497       497       508       533       528       521       534       542       542       516       524       506       517 
total reads: 90226
bank skew: 557/468 = 1.19
chip skew: 8225/8174 = 1.01
average mf latency per bank:
dram[0]:      11500     11489     14606     14789     15287     15222     12121     12370      6534      6302      9426      9389     17789     17698     13490     13079
dram[1]:      12124     12097     14578     14608     15425     15400     12456     12611      6578      6383      9644      9453     17781     18146     13608     13183
dram[2]:      12006     11990     14729     14611     15161     15506     12563     12503      6380      6025      9728      9466     17975     18306     13554     13222
dram[3]:      12400     11830     14423     14443     15345     15211     12272     12237      6417      6181      9643      9549     17909     18212     13732     13211
dram[4]:      12181     11913     13842     13701     15935     15941     12127     12012      6463      6184      9299      8990     17958     17853     13288     12886
dram[5]:      12464     12778     13770     13670     15956     15946     11798     11921      6704      6463      8742      8765     18025     17895     12416     12088
dram[6]:      12608     12302     13975     14118     16120     16128     12033     12243      6817      6570     10253     10602     17861     18326     12799     12445
dram[7]:      12215     12304     14273     14234     16030     16446     12803     12948      6570      6141     10808     10666     18438     18813     12876     12586
dram[8]:      12446     12066     14392     14375     15838     15944     12776     12598      6151      5895     10858     10646     18618     19008     12965     12566
dram[9]:      12356     11760     14002     13800     15655     15266     12007     11791      6263      6039     10856     10821     18567     18550     13497     13140
dram[10]:      11349     11440     13892     13683     15549     15724     11819     12035      6380      6166     10884     10810     18348     17909     13170     12668
maximum mf latency per bank:
dram[0]:     185279    185152    124770    124657    124490    124535    123758    123719    123046    122891    186181    186193    185877    185892    243814    243834
dram[1]:     185195    185122    124856    124580    124585    124591    123748    123755    122986    123019    186179    186194    186006    186147    243800    243829
dram[2]:     185298    185106    124782    124695    124624    124527    123755    123764    123015    122995    186182    186186    186049    186211    243808    243831
dram[3]:     185117    184936    124685    124709    124542    124572    123760    123737    123069    123072    186182    186191    186002    186098    243807    243881
dram[4]:     185030    185060    124736    124700    124544    124546    123744    123755    123051    123004    186186    186191    185903    185955    243809    185672
dram[5]:     185248    185132    124506    124605    124473    124556    123562    123729    123015    122923    186184    186188    185882    185911    185681    185764
dram[6]:     185250    185211    124865    124606    124473    124506    123731    123756    123043    123003    186185    186211    186002    186080    185853    185879
dram[7]:     185310    185130    124808    124698    124583    124558    123783    124042    122982    123015    186183    186190    185991    186093    185777    185715
dram[8]:     185135    184945    124694    124714    124578    124584    123813    123828    123011    123071    186181    186217    186075    186130    185857    185767
dram[9]:     185038    185065    124754    124629    124526    124566    123724    123734    123050    122978    186192    186198    185882    185983    243764    243774
dram[10]:     124065    124011    124735    124769    124569    124549    123741    123799    123024    122964    186190    186195    185901    185942    243797    243810
Memory Partition 0: 
Cache L2_bank_000:
MSHR contents

Cache L2_bank_001:
MSHR contents

In Dram Latency Queue (total = 0): 
DRAM[0]: 16 bks, busW=4 BL=8 CL=12, tRRD=2 tCCD=6, tRCD=12 tRAS=28 tRP=12 tRC=40
n_cmd=3452948 n_nop=3394875 n_act=1567 n_pre=1551 n_req=17140 n_rd=35748 n_write=19207 bw_util=0.03183
n_activity=192899 dram_eff=0.5698
bk0: 2244a 3432642i bk1: 2240a 3431458i bk2: 2240a 3431779i bk3: 2240a 3430659i bk4: 2240a 3431807i bk5: 2240a 3429235i bk6: 2240a 3430511i bk7: 2240a 3429837i bk8: 2240a 3430894i bk9: 2240a 3429467i bk10: 2192a 3431194i bk11: 2192a 3430075i bk12: 2240a 3431530i bk13: 2240a 3430121i bk14: 2240a 3432157i bk15: 2240a 3430376i 
dram_util_bins: 0 0 0 0 0 0 0 0 0 0
dram_eff_bins: 0 0 0 0 0 0 0 0 0 0
mrqq: max=64 avg=0.33689
Memory Partition 1: 
Cache L2_bank_002:
MSHR contents

Cache L2_bank_003:
MSHR contents

In Dram Latency Queue (total = 0): 
DRAM[1]: 16 bks, busW=4 BL=8 CL=12, tRRD=2 tCCD=6, tRCD=12 tRAS=28 tRP=12 tRC=40
n_cmd=3452948 n_nop=3395140 n_act=1479 n_pre=1463 n_req=17122 n_rd=35752 n_write=19114 bw_util=0.03178
n_activity=191630 dram_eff=0.5726
bk0: 2240a 3432930i bk1: 2240a 3431365i bk2: 2240a 3432588i bk3: 2240a 3431791i bk4: 2240a 3431650i bk5: 2240a 3430583i bk6: 2240a 3431307i bk7: 2240a 3430220i bk8: 2240a 3430531i bk9: 2240a 3429657i bk10: 2196a 3431570i bk11: 2196a 3430393i bk12: 2240a 3431645i bk13: 2240a 3430183i bk14: 2240a 3432132i bk15: 2240a 3430621i 
dram_util_bins: 0 0 0 0 0 0 0 0 0 0
dram_eff_bins: 0 0 0 0 0 0 0 0 0 0
mrqq: max=64 avg=0.331873
Memory Partition 2: 
Cache L2_bank_004:
MSHR contents

Cache L2_bank_005:
MSHR contents

In Dram Latency Queue (total = 0): 
DRAM[2]: 16 bks, busW=4 BL=8 CL=12, tRRD=2 tCCD=6, tRCD=12 tRAS=28 tRP=12 tRC=40
n_cmd=3452948 n_nop=3395183 n_act=1409 n_pre=1393 n_req=17141 n_rd=35752 n_write=19211 bw_util=0.03184
n_activity=191052 dram_eff=0.5754
bk0: 2240a 3433481i bk1: 2240a 3431464i bk2: 2240a 3432359i bk3: 2240a 3431508i bk4: 2240a 3431466i bk5: 2240a 3430768i bk6: 2240a 3431394i bk7: 2240a 3430911i bk8: 2240a 3431022i bk9: 2240a 3430089i bk10: 2196a 3431610i bk11: 2196a 3429931i bk12: 2240a 3431045i bk13: 2240a 3429464i bk14: 2240a 3431590i bk15: 2240a 3431264i 
dram_util_bins: 0 0 0 0 0 0 0 0 0 0
dram_eff_bins: 0 0 0 0 0 0 0 0 0 0
mrqq: max=64 avg=0.329645
Memory Partition 3: 
Cache L2_bank_006:
MSHR contents

Cache L2_bank_007:
MSHR contents

In Dram Latency Queue (total = 0): 
DRAM[3]: 16 bks, busW=4 BL=8 CL=12, tRRD=2 tCCD=6, tRCD=12 tRAS=28 tRP=12 tRC=40
n_cmd=3452948 n_nop=3395299 n_act=1357 n_pre=1341 n_req=17139 n_rd=35752 n_write=19199 bw_util=0.03183
n_activity=191494 dram_eff=0.5739
bk0: 2240a 3433182i bk1: 2240a 3432423i bk2: 2240a 3432696i bk3: 2240a 3432005i bk4: 2240a 3431972i bk5: 2240a 3431185i bk6: 2240a 3431060i bk7: 2240a 3430713i bk8: 2240a 3430970i bk9: 2240a 3430348i bk10: 2196a 3431552i bk11: 2196a 3430657i bk12: 2240a 3430707i bk13: 2240a 3429707i bk14: 2240a 3432861i bk15: 2240a 3431211i 
dram_util_bins: 0 0 0 0 0 0 0 0 0 0
dram_eff_bins: 0 0 0 0 0 0 0 0 0 0
mrqq: max=64 avg=0.330571
Memory Partition 4: 
Cache L2_bank_008:
MSHR contents

Cache L2_bank_009:
MSHR contents

In Dram Latency Queue (total = 0): 
DRAM[4]: 16 bks, busW=4 BL=8 CL=12, tRRD=2 tCCD=6, tRCD=12 tRAS=28 tRP=12 tRC=40
n_cmd=3452948 n_nop=3395151 n_act=1418 n_pre=1402 n_req=17159 n_rd=35760 n_write=19217 bw_util=0.03184
n_activity=191632 dram_eff=0.5738
bk0: 2240a 3432209i bk1: 2240a 3431152i bk2: 2240a 3432205i bk3: 2240a 3431454i bk4: 2240a 3432025i bk5: 2240a 3430451i bk6: 2240a 3431943i bk7: 2240a 3430695i bk8: 2240a 3431078i bk9: 2240a 3430775i bk10: 2196a 3430563i bk11: 2196a 3429527i bk12: 2240a 3431657i bk13: 2240a 3430421i bk14: 2244a 3432791i bk15: 2244a 3430505i 
dram_util_bins: 0 0 0 0 0 0 0 0 0 0
dram_eff_bins: 0 0 0 0 0 0 0 0 0 0
mrqq: max=64 avg=0.338102
Memory Partition 5: 
Cache L2_bank_010:
MSHR contents

Cache L2_bank_011:
MSHR contents

In Dram Latency Queue (total = 0): 
DRAM[5]: 16 bks, busW=4 BL=8 CL=12, tRRD=2 tCCD=6, tRCD=12 tRAS=28 tRP=12 tRC=40
n_cmd=3452948 n_nop=3394885 n_act=1588 n_pre=1572 n_req=17112 n_rd=35752 n_write=19151 bw_util=0.0318
n_activity=192788 dram_eff=0.5696
bk0: 2240a 3431882i bk1: 2240a 3431829i bk2: 2240a 3432804i bk3: 2240a 3431425i bk4: 2240a 3430904i bk5: 2240a 3429628i bk6: 2240a 3431606i bk7: 2240a 3430491i bk8: 2240a 3430425i bk9: 2240a 3429074i bk10: 2192a 3431443i bk11: 2192a 3430990i bk12: 2240a 3431687i bk13: 2240a 3429719i bk14: 2244a 3432168i bk15: 2244a 3430711i 
dram_util_bins: 0 0 0 0 0 0 0 0 0 0
dram_eff_bins: 0 0 0 0 0 0 0 0 0 0
mrqq: max=64 avg=0.328949
Memory Partition 6: 
Cache L2_bank_012:
MSHR contents

Cache L2_bank_013:
MSHR contents

In Dram Latency Queue (total = 0): 
DRAM[6]: 16 bks, busW=4 BL=8 CL=12, tRRD=2 tCCD=6, tRCD=12 tRAS=28 tRP=12 tRC=40
n_cmd=3452948 n_nop=3395104 n_act=1483 n_pre=1467 n_req=17141 n_rd=35752 n_write=19142 bw_util=0.0318
n_activity=190712 dram_eff=0.5757
bk0: 2240a 3432546i bk1: 2240a 3431697i bk2: 2240a 3432994i bk3: 2240a 3431795i bk4: 2240a 3431162i bk5: 2240a 3429424i bk6: 2240a 3431157i bk7: 2240a 3430401i bk8: 2240a 3431062i bk9: 2240a 3429918i bk10: 2192a 3431455i bk11: 2192a 3430919i bk12: 2240a 3431315i bk13: 2240a 3430256i bk14: 2244a 3432128i bk15: 2244a 3430716i 
dram_util_bins: 0 0 0 0 0 0 0 0 0 0
dram_eff_bins: 0 0 0 0 0 0 0 0 0 0
mrqq: max=64 avg=0.330602
Memory Partition 7: 
Cache L2_bank_014:
MSHR contents

Cache L2_bank_015:
MSHR contents

In Dram Latency Queue (total = 0): 
DRAM[7]: 16 bks, busW=4 BL=8 CL=12, tRRD=2 tCCD=6, tRCD=12 tRAS=28 tRP=12 tRC=40
n_cmd=3452948 n_nop=3395243 n_act=1397 n_pre=1381 n_req=17158 n_rd=35752 n_write=19175 bw_util=0.03181
n_activity=191376 dram_eff=0.574
bk0: 2240a 3433547i bk1: 2240a 3431830i bk2: 2240a 3432505i bk3: 2240a 3431739i bk4: 2240a 3430920i bk5: 2240a 3430208i bk6: 2240a 3431474i bk7: 2240a 3430992i bk8: 2240a 3430747i bk9: 2240a 3429996i bk10: 2192a 3431676i bk11: 2192a 3430777i bk12: 2240a 3431160i bk13: 2240a 3430047i bk14: 2244a 3431884i bk15: 2244a 3431385i 
dram_util_bins: 0 0 0 0 0 0 0 0 0 0
dram_eff_bins: 0 0 0 0 0 0 0 0 0 0
mrqq: max=64 avg=0.333493
Memory Partition 8: 
Cache L2_bank_016:
MSHR contents

Cache L2_bank_017:
MSHR contents

In Dram Latency Queue (total = 0): 
DRAM[8]: 16 bks, busW=4 BL=8 CL=12, tRRD=2 tCCD=6, tRCD=12 tRAS=28 tRP=12 tRC=40
n_cmd=3452948 n_nop=3395224 n_act=1393 n_pre=1377 n_req=17133 n_rd=35752 n_write=19202 bw_util=0.03183
n_activity=191566 dram_eff=0.5737
bk0: 2240a 3433477i bk1: 2240a 3431550i bk2: 2240a 3432409i bk3: 2240a 3431885i bk4: 2240a 3432014i bk5: 2240a 3430478i bk6: 2240a 3431179i bk7: 2240a 3431480i bk8: 2240a 3430165i bk9: 2240a 3429743i bk10: 2192a 3431901i bk11: 2192a 3430681i bk12: 2240a 3431278i bk13: 2240a 3431302i bk14: 2244a 3432251i bk15: 2244a 3431317i 
dram_util_bins: 0 0 0 0 0 0 0 0 0 0
dram_eff_bins: 0 0 0 0 0 0 0 0 0 0
mrqq: max=64 avg=0.330708
Memory Partition 9: 
Cache L2_bank_018:
MSHR contents

Cache L2_bank_019:
MSHR contents

In Dram Latency Queue (total = 0): 
DRAM[9]: 16 bks, busW=4 BL=8 CL=12, tRRD=2 tCCD=6, tRCD=12 tRAS=28 tRP=12 tRC=40
n_cmd=3452948 n_nop=3395116 n_act=1437 n_pre=1421 n_req=17163 n_rd=35752 n_write=19222 bw_util=0.03184
n_activity=191939 dram_eff=0.5728
bk0: 2240a 3432948i bk1: 2240a 3432821i bk2: 2240a 3432635i bk3: 2240a 3431527i bk4: 2240a 3431384i bk5: 2240a 3429855i bk6: 2240a 3431212i bk7: 2240a 3431232i bk8: 2240a 3430837i bk9: 2240a 3430722i bk10: 2192a 3432037i bk11: 2192a 3429698i bk12: 2240a 3430549i bk13: 2240a 3430494i bk14: 2244a 3432233i bk15: 2244a 3430275i 
dram_util_bins: 0 0 0 0 0 0 0 0 0 0
dram_eff_bins: 0 0 0 0 0 0 0 0 0 0
mrqq: max=64 avg=0.334289
Memory Partition 10: 
Cache L2_bank_020:
MSHR contents

Cache L2_bank_021:
MSHR contents

In Dram Latency Queue (total = 0): 
DRAM[10]: 16 bks, busW=4 BL=8 CL=12, tRRD=2 tCCD=6, tRCD=12 tRAS=28 tRP=12 tRC=40
n_cmd=3452948 n_nop=3394991 n_act=1507 n_pre=1491 n_req=17136 n_rd=35748 n_write=19211 bw_util=0.03183
n_activity=192278 dram_eff=0.5717
bk0: 2240a 3432401i bk1: 2240a 3431208i bk2: 2240a 3431830i bk3: 2240a 3430824i bk4: 2240a 3431129i bk5: 2240a 3429365i bk6: 2240a 3432151i bk7: 2240a 3430489i bk8: 2240a 3431010i bk9: 2240a 3430170i bk10: 2192a 3430974i bk11: 2192a 3430668i bk12: 2240a 3431441i bk13: 2240a 3429768i bk14: 2244a 3431642i bk15: 2240a 3430737i 
dram_util_bins: 0 0 0 0 0 0 0 0 0 0
dram_eff_bins: 0 0 0 0 0 0 0 0 0 0
mrqq: max=64 avg=0.336846

========= L2 cache stats =========
L2_cache_bank[0]: Access = 20620, Miss = 4469, Miss_rate = 0.217, Pending_hits = 6912, Reservation_fails = 4
L2_cache_bank[1]: Access = 20905, Miss = 4468, Miss_rate = 0.214, Pending_hits = 7051, Reservation_fails = 10
L2_cache_bank[2]: Access = 20570, Miss = 4469, Miss_rate = 0.217, Pending_hits = 6921, Reservation_fails = 4
L2_cache_bank[3]: Access = 20910, Miss = 4469, Miss_rate = 0.214, Pending_hits = 7056, Reservation_fails = 3
L2_cache_bank[4]: Access = 20562, Miss = 4469, Miss_rate = 0.217, Pending_hits = 6832, Reservation_fails = 6
L2_cache_bank[5]: Access = 20901, Miss = 4469, Miss_rate = 0.214, Pending_hits = 7056, Reservation_fails = 7
L2_cache_bank[6]: Access = 20556, Miss = 4469, Miss_rate = 0.217, Pending_hits = 6906, Reservation_fails = 6
L2_cache_bank[7]: Access = 20897, Miss = 4469, Miss_rate = 0.214, Pending_hits = 7026, Reservation_fails = 6
L2_cache_bank[8]: Access = 20582, Miss = 4470, Miss_rate = 0.217, Pending_hits = 6931, Reservation_fails = 6
L2_cache_bank[9]: Access = 20926, Miss = 4470, Miss_rate = 0.214, Pending_hits = 7051, Reservation_fails = 3
L2_cache_bank[10]: Access = 20583, Miss = 4469, Miss_rate = 0.217, Pending_hits = 6909, Reservation_fails = 6
L2_cache_bank[11]: Access = 20925, Miss = 4469, Miss_rate = 0.214, Pending_hits = 7057, Reservation_fails = 11
L2_cache_bank[12]: Access = 20590, Miss = 4469, Miss_rate = 0.217, Pending_hits = 6974, Reservation_fails = 6
L2_cache_bank[13]: Access = 20929, Miss = 4469, Miss_rate = 0.214, Pending_hits = 7096, Reservation_fails = 8
L2_cache_bank[14]: Access = 20586, Miss = 4469, Miss_rate = 0.217, Pending_hits = 6884, Reservation_fails = 9
L2_cache_bank[15]: Access = 20925, Miss = 4469, Miss_rate = 0.214, Pending_hits = 7038, Reservation_fails = 9
L2_cache_bank[16]: Access = 20580, Miss = 4469, Miss_rate = 0.217, Pending_hits = 6862, Reservation_fails = 5
L2_cache_bank[17]: Access = 20920, Miss = 4469, Miss_rate = 0.214, Pending_hits = 7139, Reservation_fails = 11
L2_cache_bank[18]: Access = 20578, Miss = 4469, Miss_rate = 0.217, Pending_hits = 6928, Reservation_fails = 8
L2_cache_bank[19]: Access = 20921, Miss = 4469, Miss_rate = 0.214, Pending_hits = 7019, Reservation_fails = 6
L2_cache_bank[20]: Access = 20581, Miss = 4469, Miss_rate = 0.217, Pending_hits = 6953, Reservation_fails = 4
L2_cache_bank[21]: Access = 20897, Miss = 4468, Miss_rate = 0.214, Pending_hits = 7016, Reservation_fails = 10
L2_total_cache_accesses = 456444
L2_total_cache_misses = 98318
L2_total_cache_miss_rate = 0.2154
L2_total_cache_pending_hits = 153617
L2_total_cache_reservation_fails = 148
L2_total_cache_breakdown:
	L2_cache_stats_breakdown[GLOBAL_ACC_R][HIT] = 171362
	L2_cache_stats_breakdown[GLOBAL_ACC_R][HIT_RESERVED] = 109558
	L2_cache_stats_breakdown[GLOBAL_ACC_R][MISS] = 65536
	L2_cache_stats_breakdown[GLOBAL_ACC_R][RESERVATION_FAIL] = 0
	L2_cache_stats_breakdown[LOCAL_ACC_R][HIT] = 0
	L2_cache_stats_breakdown[LOCAL_ACC_R][HIT_RESERVED] = 0
	L2_cache_stats_breakdown[LOCAL_ACC_R][MISS] = 0
	L2_cache_stats_breakdown[LOCAL_ACC_R][RESERVATION_FAIL] = 0
	L2_cache_stats_breakdown[CONST_ACC_R][HIT] = 28
	L2_cache_stats_breakdown[CONST_ACC_R][HIT_RESERVED] = 27
	L2_cache_stats_breakdown[CONST_ACC_R][MISS] = 1
	L2_cache_stats_breakdown[CONST_ACC_R][RESERVATION_FAIL] = 0
	L2_cache_stats_breakdown[TEXTURE_ACC_R][HIT] = 0
	L2_cache_stats_breakdown[TEXTURE_ACC_R][HIT_RESERVED] = 0
	L2_cache_stats_breakdown[TEXTURE_ACC_R][MISS] = 0
	L2_cache_stats_breakdown[TEXTURE_ACC_R][RESERVATION_FAIL] = 0
	L2_cache_stats_breakdown[GLOBAL_ACC_W][HIT] = 33109
	L2_cache_stats_breakdown[GLOBAL_ACC_W][HIT_RESERVED] = 43691
	L2_cache_stats_breakdown[GLOBAL_ACC_W][MISS] = 32768
	L2_cache_stats_breakdown[GLOBAL_ACC_W][RESERVATION_FAIL] = 148
	L2_cache_stats_breakdown[LOCAL_ACC_W][HIT] = 0
	L2_cache_stats_breakdown[LOCAL_ACC_W][HIT_RESERVED] = 0
	L2_cache_stats_breakdown[LOCAL_ACC_W][MISS] = 0
	L2_cache_stats_breakdown[LOCAL_ACC_W][RESERVATION_FAIL] = 0
	L2_cache_stats_breakdown[L1_WRBK_ACC][HIT] = 0
	L2_cache_stats_breakdown[L1_WRBK_ACC][HIT_RESERVED] = 0
	L2_cache_stats_breakdown[L1_WRBK_ACC][MISS] = 0
	L2_cache_stats_breakdown[L1_WRBK_ACC][RESERVATION_FAIL] = 0
	L2_cache_stats_breakdown[L2_WRBK_ACC][HIT] = 0
	L2_cache_stats_breakdown[L2_WRBK_ACC][HIT_RESERVED] = 0
	L2_cache_stats_breakdown[L2_WRBK_ACC][MISS] = 0
	L2_cache_stats_breakdown[L2_WRBK_ACC][RESERVATION_FAIL] = 0
	L2_cache_stats_breakdown[INST_ACC_R][HIT] = 10
	L2_cache_stats_breakdown[INST_ACC_R][HIT_RESERVED] = 341
	L2_cache_stats_breakdown[INST_ACC_R][MISS] = 13
	L2_cache_stats_breakdown[INST_ACC_R][RESERVATION_FAIL] = 0
	L2_cache_stats_breakdown[L1_WR_ALLOC_R][HIT] = 0
	L2_cache_stats_breakdown[L1_WR_ALLOC_R][HIT_RESERVED] = 0
	L2_cache_stats_breakdown[L1_WR_ALLOC_R][MISS] = 0
	L2_cache_stats_breakdown[L1_WR_ALLOC_R][RESERVATION_FAIL] = 0
	L2_cache_stats_breakdown[L2_WR_ALLOC_R][HIT] = 0
	L2_cache_stats_breakdown[L2_WR_ALLOC_R][HIT_RESERVED] = 0
	L2_cache_stats_breakdown[L2_WR_ALLOC_R][MISS] = 0
	L2_cache_stats_breakdown[L2_WR_ALLOC_R][RESERVATION_FAIL] = 0
	L2_cache_stats_breakdown[GLOBAL_ACC_R][TOTAL_ACCESS] = 346456
	L2_cache_stats_breakdown[CONST_ACC_R][TOTAL_ACCESS] = 56
	L2_cache_stats_breakdown[GLOBAL_ACC_W][TOTAL_ACCESS] = 109568
	L2_cache_stats_breakdown[INST_ACC_R][TOTAL_ACCESS] = 364
L2_cache_data_port_util = 0.012
L2_cache_fill_port_util = 0.010

icnt_total_pkts_mem_to_simt=1270956
icnt_total_pkts_simt_to_mem=674556
LD_mem_lat_dist  0 0 0 0 0 0 0 0 0 0 0 0 0 0 0 0 0 0 0 0 0 0 0 0 0 0 0
ST_mem_lat_dist  0 0 0 0 0 0 0 0 0 0 0 0 0 0 0 0 0 0 0 0 0 0 0 0 0 0 0
----------------------------Interconnect-DETAILS--------------------------------
Class 0:
Packet latency average = 16.5305
	minimum = 6
	maximum = 752
Network latency average = 13.0456
	minimum = 6
	maximum = 747
Slowest packet = 534860
Flit latency average = 13.0339
	minimum = 6
	maximum = 743
Slowest flit = 1143041
Fragmentation average = 0.00151716
	minimum = 0
	maximum = 658
Injected packet rate average = 0.00490914
	minimum = 0.00426308 (at node 15)
	maximum = 0.00562738 (at node 41)
Accepted packet rate average = 0.00490914
	minimum = 0.00426308 (at node 15)
	maximum = 0.00562738 (at node 41)
Injected flit rate average = 0.0104622
	minimum = 0.00635927 (at node 15)
	maximum = 0.0156595 (at node 37)
Accepted flit rate average= 0.0104622
	minimum = 0.00820432 (at node 34)
	maximum = 0.012537 (at node 17)
Injected packet length average = 2.13116
Accepted packet length average = 2.13116
Total in-flight flits = 0 (0 measured)
====== Overall Traffic Statistics ======
====== Traffic class 0 ======
Packet latency average = 16.5305 (1 samples)
	minimum = 6 (1 samples)
	maximum = 752 (1 samples)
Network latency average = 13.0456 (1 samples)
	minimum = 6 (1 samples)
	maximum = 747 (1 samples)
Flit latency average = 13.0339 (1 samples)
	minimum = 6 (1 samples)
	maximum = 743 (1 samples)
Fragmentation average = 0.00151716 (1 samples)
	minimum = 0 (1 samples)
	maximum = 658 (1 samples)
Injected packet rate average = 0.00490914 (1 samples)
	minimum = 0.00426308 (1 samples)
	maximum = 0.00562738 (1 samples)
Accepted packet rate average = 0.00490914 (1 samples)
	minimum = 0.00426308 (1 samples)
	maximum = 0.00562738 (1 samples)
Injected flit rate average = 0.0104622 (1 samples)
	minimum = 0.00635927 (1 samples)
	maximum = 0.0156595 (1 samples)
Accepted flit rate average = 0.0104622 (1 samples)
	minimum = 0.00820432 (1 samples)
	maximum = 0.012537 (1 samples)
Injected packet size average = 2.13116 (1 samples)
Accepted packet size average = 2.13116 (1 samples)
Hops average = 1 (1 samples)
----------------------------END-of-Interconnect-DETAILS-------------------------


gpgpu_simulation_time = 0 days, 0 hrs, 40 min, 28 sec (2428 sec)
gpgpu_simulation_rate = 171114 (inst/sec)
gpgpu_simulation_rate = 857 (cycle/sec)

GPGPU-Sim PTX: cudaLaunch for 0x0x401ae2 (mode=performance simulation) on stream 0
GPGPU-Sim PTX: pushing kernel '_Z14calculate_tempiPfS_S_iiiiffffff' to stream 0, gridDim= (86,86,1) blockDim = (16,16,1) 
GPGPU-Sim uArch: Shader 3 bind to kernel 2 '_Z14calculate_tempiPfS_S_iiiiffffff'
GPGPU-Sim uArch: Shader 4 bind to kernel 2 '_Z14calculate_tempiPfS_S_iiiiffffff'
GPGPU-Sim uArch: Shader 5 bind to kernel 2 '_Z14calculate_tempiPfS_S_iiiiffffff'
GPGPU-Sim uArch: Shader 6 bind to kernel 2 '_Z14calculate_tempiPfS_S_iiiiffffff'
GPGPU-Sim uArch: Shader 7 bind to kernel 2 '_Z14calculate_tempiPfS_S_iiiiffffff'
GPGPU-Sim uArch: Shader 8 bind to kernel 2 '_Z14calculate_tempiPfS_S_iiiiffffff'
GPGPU-Sim uArch: Shader 9 bind to kernel 2 '_Z14calculate_tempiPfS_S_iiiiffffff'
GPGPU-Sim uArch: Shader 10 bind to kernel 2 '_Z14calculate_tempiPfS_S_iiiiffffff'
GPGPU-Sim uArch: Shader 11 bind to kernel 2 '_Z14calculate_tempiPfS_S_iiiiffffff'
GPGPU-Sim uArch: Shader 12 bind to kernel 2 '_Z14calculate_tempiPfS_S_iiiiffffff'
GPGPU-Sim uArch: Shader 13 bind to kernel 2 '_Z14calculate_tempiPfS_S_iiiiffffff'
GPGPU-Sim uArch: Shader 14 bind to kernel 2 '_Z14calculate_tempiPfS_S_iiiiffffff'
GPGPU-Sim uArch: Shader 15 bind to kernel 2 '_Z14calculate_tempiPfS_S_iiiiffffff'
GPGPU-Sim uArch: Shader 16 bind to kernel 2 '_Z14calculate_tempiPfS_S_iiiiffffff'
GPGPU-Sim uArch: Shader 17 bind to kernel 2 '_Z14calculate_tempiPfS_S_iiiiffffff'
GPGPU-Sim uArch: Shader 18 bind to kernel 2 '_Z14calculate_tempiPfS_S_iiiiffffff'
GPGPU-Sim uArch: Shader 19 bind to kernel 2 '_Z14calculate_tempiPfS_S_iiiiffffff'
GPGPU-Sim uArch: Shader 20 bind to kernel 2 '_Z14calculate_tempiPfS_S_iiiiffffff'
GPGPU-Sim uArch: Shader 21 bind to kernel 2 '_Z14calculate_tempiPfS_S_iiiiffffff'
GPGPU-Sim uArch: Shader 22 bind to kernel 2 '_Z14calculate_tempiPfS_S_iiiiffffff'
GPGPU-Sim uArch: Shader 23 bind to kernel 2 '_Z14calculate_tempiPfS_S_iiiiffffff'
GPGPU-Sim uArch: Shader 24 bind to kernel 2 '_Z14calculate_tempiPfS_S_iiiiffffff'
GPGPU-Sim uArch: Shader 25 bind to kernel 2 '_Z14calculate_tempiPfS_S_iiiiffffff'
GPGPU-Sim uArch: Shader 26 bind to kernel 2 '_Z14calculate_tempiPfS_S_iiiiffffff'
GPGPU-Sim uArch: Shader 27 bind to kernel 2 '_Z14calculate_tempiPfS_S_iiiiffffff'
GPGPU-Sim uArch: Shader 0 bind to kernel 2 '_Z14calculate_tempiPfS_S_iiiiffffff'
GPGPU-Sim uArch: Shader 1 bind to kernel 2 '_Z14calculate_tempiPfS_S_iiiiffffff'
GPGPU-Sim uArch: Shader 2 bind to kernel 2 '_Z14calculate_tempiPfS_S_iiiiffffff'
GPGPU-Sim uArch: Shader 3 bind to kernel 2 '_Z14calculate_tempiPfS_S_iiiiffffff'
GPGPU-Sim uArch: Shader 4 bind to kernel 2 '_Z14calculate_tempiPfS_S_iiiiffffff'
GPGPU-Sim uArch: Shader 5 bind to kernel 2 '_Z14calculate_tempiPfS_S_iiiiffffff'
GPGPU-Sim uArch: Shader 6 bind to kernel 2 '_Z14calculate_tempiPfS_S_iiiiffffff'
GPGPU-Sim uArch: Shader 22 bind to kernel 2 '_Z14calculate_tempiPfS_S_iiiiffffff'
GPGPU-Sim uArch: Shader 23 bind to kernel 2 '_Z14calculate_tempiPfS_S_iiiiffffff'
GPGPU-Sim uArch: Shader 24 bind to kernel 2 '_Z14calculate_tempiPfS_S_iiiiffffff'
GPGPU-Sim uArch: Shader 10 bind to kernel 2 '_Z14calculate_tempiPfS_S_iiiiffffff'
GPGPU-Sim uArch: Shader 14 bind to kernel 2 '_Z14calculate_tempiPfS_S_iiiiffffff'
GPGPU-Sim uArch: Shader 15 bind to kernel 2 '_Z14calculate_tempiPfS_S_iiiiffffff'
GPGPU-Sim uArch: Shader 16 bind to kernel 2 '_Z14calculate_tempiPfS_S_iiiiffffff'
GPGPU-Sim uArch: Shader 17 bind to kernel 2 '_Z14calculate_tempiPfS_S_iiiiffffff'
GPGPU-Sim uArch: Shader 18 bind to kernel 2 '_Z14calculate_tempiPfS_S_iiiiffffff'
GPGPU-Sim uArch: Shader 19 bind to kernel 2 '_Z14calculate_tempiPfS_S_iiiiffffff'
GPGPU-Sim uArch: Shader 20 bind to kernel 2 '_Z14calculate_tempiPfS_S_iiiiffffff'
GPGPU-Sim uArch: Shader 22 bind to kernel 2 '_Z14calculate_tempiPfS_S_iiiiffffff'
GPGPU-Sim uArch: Shader 23 bind to kernel 2 '_Z14calculate_tempiPfS_S_iiiiffffff'
GPGPU-Sim uArch: Shader 26 bind to kernel 2 '_Z14calculate_tempiPfS_S_iiiiffffff'
GPGPU-Sim uArch: Shader 27 bind to kernel 2 '_Z14calculate_tempiPfS_S_iiiiffffff'
GPGPU-Sim uArch: Shader 0 bind to kernel 2 '_Z14calculate_tempiPfS_S_iiiiffffff'
GPGPU-Sim uArch: Shader 1 bind to kernel 2 '_Z14calculate_tempiPfS_S_iiiiffffff'
GPGPU-Sim uArch: Shader 2 bind to kernel 2 '_Z14calculate_tempiPfS_S_iiiiffffff'
GPGPU-Sim uArch: Shader 3 bind to kernel 2 '_Z14calculate_tempiPfS_S_iiiiffffff'
GPGPU-Sim uArch: Shader 6 bind to kernel 2 '_Z14calculate_tempiPfS_S_iiiiffffff'
GPGPU-Sim uArch: Shader 7 bind to kernel 2 '_Z14calculate_tempiPfS_S_iiiiffffff'
GPGPU-Sim uArch: Shader 9 bind to kernel 2 '_Z14calculate_tempiPfS_S_iiiiffffff'
GPGPU-Sim uArch: Shader 19 bind to kernel 2 '_Z14calculate_tempiPfS_S_iiiiffffff'
GPGPU-Sim uArch: Shader 3 bind to kernel 2 '_Z14calculate_tempiPfS_S_iiiiffffff'
[...]
F:  3007091----T:  3010177 	 St: c0a00000 Sz: 12288 	 Sm: 0 	 T: memcpy_h2d(2.083727)
F:  3007091----T:  3015793 	 St: c0610000 Sz: 65536 	 Sm: 0 	 T: write_back(5.875760)
F:  3010177----T:  3017499 	 St: c0a03000 Sz: 53248 	 Sm: 0 	 T: memcpy_h2d(4.943957)
F:  3017903----T:  3020508 	 St: c0610000 Sz: 4096 	 Sm: 0 	 T: memcpy_h2d(1.758947)
F:  3017903----T:  3026605 	 St: c0400000 Sz: 65536 	 Sm: 0 	 T: write_back(5.875760)
F:  3020508----T:  3028748 	 St: c0611000 Sz: 61440 	 Sm: 0 	 T: memcpy_h2d(5.563808)
F:  3026606----T:  3035308 	 St: c0410000 Sz: 65536 	 Sm: 0 	 T: write_back(5.875760)
F:  3028748----T:  3031353 	 St: c0200000 Sz: 4096 	 Sm: 0 	 T: memcpy_h2d(1.758947)
F:  3031353----T:  3039593 	 St: c0201000 Sz: 61440 	 Sm: 0 	 T: memcpy_h2d(5.563808)
F:  3035309----T:  3051472 	 St: c0420000 Sz: 131072 	 Sm: 0 	 T: write_back(10.913572)
F:  3039593----T:  3042198 	 St: c0a10000 Sz: 4096 	 Sm: 0 	 T: memcpy_h2d(1.758947)
F:  3042198----T:  3050438 	 St: c0a11000 Sz: 61440 	 Sm: 0 	 T: memcpy_h2d(5.563808)
F:  3052918----T:  3056004 	 St: c0a20000 Sz: 12288 	 Sm: 0 	 T: memcpy_h2d(2.083727)
F:  3052918----T:  3084111 	 St: c0440000 Sz: 262144 	 Sm: 0 	 T: write_back(21.062120)
F:  3056004----T:  3070762 	 St: c0a23000 Sz: 118784 	 Sm: 0 	 T: memcpy_h2d(9.964889)
F:  3070762----T:  3073848 	 St: c0210000 Sz: 12288 	 Sm: 0 	 T: memcpy_h2d(2.083727)
F:  3073848----T:  3081170 	 St: c0213000 Sz: 53248 	 Sm: 0 	 T: memcpy_h2d(4.943957)
F:  3081170----T:  3083775 	 St: c0220000 Sz: 4096 	 Sm: 0 	 T: memcpy_h2d(1.758947)
F:  3083775----T:  3099470 	 St: c0221000 Sz: 126976 	 Sm: 0 	 T: memcpy_h2d(10.597569)
F:  3101371----T:  3103976 	 St: c0a40000 Sz: 4096 	 Sm: 0 	 T: memcpy_h2d(1.758947)
F:  3101371----T:  3162678 	 St: c0480000 Sz: 524288 	 Sm: 0 	 T: write_back(41.395679)
F:  3103976----T:  3134699 	 St: c0a41000 Sz: 258048 	 Sm: 0 	 T: memcpy_h2d(20.744766)
F:  3169379----T:  3171984 	 St: c0240000 Sz: 4096 	 Sm: 0 	 T: memcpy_h2d(1.758947)
F:  3171984----T:  3202707 	 St: c0241000 Sz: 258048 	 Sm: 0 	 T: memcpy_h2d(20.744766)
F:  3211642----T:  3214728 	 St: c0a80000 Sz: 12288 	 Sm: 0 	 T: memcpy_h2d(2.083727)
F:  3211642----T:  3333202 	 St: c0500000 Sz: 1048576 	 Sm: 0 	 T: write_back(82.079674)
F:  3214728----T:  3274623 	 St: c0a83000 Sz: 512000 	 Sm: 0 	 T: memcpy_h2d(40.442268)
F:  3276863----T:  3279468 	 St: c0280000 Sz: 4096 	 Sm: 0 	 T: memcpy_h2d(1.758947)
F:  3279468----T:  3340304 	 St: c0281000 Sz: 520192 	 Sm: 0 	 T: memcpy_h2d(41.077652)
F:  3364962----T:  3367567 	 St: c0b00000 Sz: 4096 	 Sm: 0 	 T: memcpy_h2d(1.758947)
F:  3364962----T:  3373664 	 St: c0800000 Sz: 65536 	 Sm: 0 	 T: write_back(5.875760)
F:  3373664----T:  3382366 	 St: c0810000 Sz: 65536 	 Sm: 0 	 T: write_back(5.875760)
F:  3382366----T:  3398529 	 St: c0820000 Sz: 131072 	 Sm: 0 	 T: write_back(10.913572)
F:  3398529----T:  3429722 	 St: c0840000 Sz: 262144 	 Sm: 0 	 T: write_back(21.062120)
F:  3429722----T:  3550811 	 St: c0b01000 Sz: 1044480 	 Sm: 0 	 T: memcpy_h2d(81.761650)
F:  3429722----T:  3491029 	 St: c0880000 Sz: 524288 	 Sm: 0 	 T: write_back(41.395679)
F:  3557582----T:  3560668 	 St: c0300000 Sz: 12288 	 Sm: 0 	 T: memcpy_h2d(2.083727)
F:  3557582----T:  3679142 	 St: c0900000 Sz: 1048576 	 Sm: 0 	 T: write_back(82.079674)
F:  3560668----T:  3680816 	 St: c0303000 Sz: 1036288 	 Sm: 0 	 T: memcpy_h2d(81.126266)
F:  3968215----T:  5410403 	 	 	 Kl: 3 	 Sm: 0 	 T: kernel_launch(973.793396)
F:  3968956----T:  3972042 	 St: c0800000 Sz: 12288 	 Sm: 0 	 T: memcpy_h2d(2.083727)
F:  3968956----T:  3977658 	 St: c0600000 Sz: 65536 	 Sm: 0 	 T: write_back(5.875760)
F:  3972042----T:  3979364 	 St: c0803000 Sz: 53248 	 Sm: 0 	 T: memcpy_h2d(4.943957)
F:  3977658----T:  3986360 	 St: c0610000 Sz: 65536 	 Sm: 0 	 T: write_back(5.875760)
F:  3979364----T:  3982450 	 St: c0810000 Sz: 12288 	 Sm: 0 	 T: memcpy_h2d(2.083727)
F:  3982450----T:  3989772 	 St: c0813000 Sz: 53248 	 Sm: 0 	 T: memcpy_h2d(4.943957)
F:  3986360----T:  4002523 	 St: c0620000 Sz: 131072 	 Sm: 0 	 T: write_back(10.913572)
F:  3989772----T:  3992858 	 St: c0820000 Sz: 12288 	 Sm: 0 	 T: memcpy_h2d(2.083727)
F:  3992858----T:  4007616 	 St: c0823000 Sz: 118784 	 Sm: 0 	 T: memcpy_h2d(9.964889)
F:  4002524----T:  4033717 	 St: c0640000 Sz: 262144 	 Sm: 0 	 T: write_back(21.062120)
F:  4007616----T:  4010221 	 St: c0400000 Sz: 4096 	 Sm: 0 	 T: memcpy_h2d(1.758947)
F:  4010221----T:  4018461 	 St: c0401000 Sz: 61440 	 Sm: 0 	 T: memcpy_h2d(5.563808)
F:  4018461----T:  4021066 	 St: c0410000 Sz: 4096 	 Sm: 0 	 T: memcpy_h2d(1.758947)
F:  4021066----T:  4029306 	 St: c0411000 Sz: 61440 	 Sm: 0 	 T: memcpy_h2d(5.563808)
F:  4029306----T:  4031911 	 St: c0420000 Sz: 4096 	 Sm: 0 	 T: memcpy_h2d(1.758947)
F:  4031911----T:  4047606 	 St: c0421000 Sz: 126976 	 Sm: 0 	 T: memcpy_h2d(10.597569)
F:  4055705----T:  4060346 	 St: c0840000 Sz: 28672 	 Sm: 0 	 T: memcpy_h2d(3.133693)
F:  4055705----T:  4117012 	 St: c0680000 Sz: 524288 	 Sm: 0 	 T: write_back(41.395679)
F:  4060346----T:  4088248 	 St: c0847000 Sz: 233472 	 Sm: 0 	 T: memcpy_h2d(18.839973)
F:  4090139----T:  4092744 	 St: c0440000 Sz: 4096 	 Sm: 0 	 T: memcpy_h2d(1.758947)
F:  4092744----T:  4123467 	 St: c0441000 Sz: 258048 	 Sm: 0 	 T: memcpy_h2d(20.744766)
F:  4136991----T:  4140077 	 St: c0880000 Sz: 12288 	 Sm: 0 	 T: memcpy_h2d(2.083727)
F:  4136991----T:  4258551 	 St: c0700000 Sz: 1048576 	 Sm: 0 	 T: write_back(82.079674)
F:  4140077----T:  4199972 	 St: c0883000 Sz: 512000 	 Sm: 0 	 T: memcpy_h2d(40.442268)
F:  4201866----T:  4204471 	 St: c0480000 Sz: 4096 	 Sm: 0 	 T: memcpy_h2d(1.758947)
F:  4204471----T:  4265307 	 St: c0481000 Sz: 520192 	 Sm: 0 	 T: memcpy_h2d(41.077652)
F:  4297478----T:  4300564 	 St: c0900000 Sz: 12288 	 Sm: 0 	 T: memcpy_h2d(2.083727)
F:  4297478----T:  4306180 	 St: c0a00000 Sz: 65536 	 Sm: 0 	 T: write_back(5.875760)
F:  4306180----T:  4314882 	 St: c0a10000 Sz: 65536 	 Sm: 0 	 T: write_back(5.875760)
F:  4314882----T:  4331045 	 St: c0a20000 Sz: 131072 	 Sm: 0 	 T: write_back(10.913572)
F:  4331045----T:  4362238 	 St: c0a40000 Sz: 262144 	 Sm: 0 	 T: write_back(21.062120)
F:  4362238----T:  4482386 	 St: c0903000 Sz: 1036288 	 Sm: 0 	 T: memcpy_h2d(81.126266)
F:  4362238----T:  4423545 	 St: c0a80000 Sz: 524288 	 Sm: 0 	 T: write_back(41.395679)
F:  4487910----T:  4490515 	 St: c0500000 Sz: 4096 	 Sm: 0 	 T: memcpy_h2d(1.758947)
F:  4487910----T:  4609470 	 St: c0b00000 Sz: 1048576 	 Sm: 0 	 T: write_back(82.079674)
F:  4490515----T:  4611604 	 St: c0501000 Sz: 1044480 	 Sm: 0 	 T: memcpy_h2d(81.761650)
F:  4671803----T:  4674889 	 St: c0a00000 Sz: 12288 	 Sm: 0 	 T: memcpy_h2d(2.083727)
F:  4671803----T:  4680505 	 St: c0210000 Sz: 65536 	 Sm: 0 	 T: write_back(5.875760)
F:  4674889----T:  4682211 	 St: c0a03000 Sz: 53248 	 Sm: 0 	 T: memcpy_h2d(4.943957)
F:  4680506----T:  4689208 	 St: c0000000 Sz: 65536 	 Sm: 0 	 T: write_back(5.875760)
F:  4682211----T:  4684816 	 St: c0210000 Sz: 4096 	 Sm: 0 	 T: memcpy_h2d(1.758947)
F:  4684816----T:  4693056 	 St: c0211000 Sz: 61440 	 Sm: 0 	 T: memcpy_h2d(5.563808)
F:  4689209----T:  4697911 	 St: c0010000 Sz: 65536 	 Sm: 0 	 T: write_back(5.875760)
F:  4693056----T:  4695661 	 St: c0600000 Sz: 4096 	 Sm: 0 	 T: memcpy_h2d(1.758947)
F:  4695661----T:  4703901 	 St: c0601000 Sz: 61440 	 Sm: 0 	 T: memcpy_h2d(5.563808)
F:  4697912----T:  4714075 	 St: c0020000 Sz: 131072 	 Sm: 0 	 T: write_back(10.913572)
F:  4703901----T:  4706506 	 St: c0a10000 Sz: 4096 	 Sm: 0 	 T: memcpy_h2d(1.758947)
F:  4706506----T:  4714746 	 St: c0a11000 Sz: 61440 	 Sm: 0 	 T: memcpy_h2d(5.563808)
F:  4716576----T:  4719662 	 St: c0a20000 Sz: 12288 	 Sm: 0 	 T: memcpy_h2d(2.083727)
F:  4716576----T:  4747769 	 St: c0040000 Sz: 262144 	 Sm: 0 	 T: write_back(21.062120)
F:  4719662----T:  4734420 	 St: c0a23000 Sz: 118784 	 Sm: 0 	 T: memcpy_h2d(9.964889)
F:  4734420----T:  4737025 	 St: c0610000 Sz: 4096 	 Sm: 0 	 T: memcpy_h2d(1.758947)
F:  4737025----T:  4745265 	 St: c0611000 Sz: 61440 	 Sm: 0 	 T: memcpy_h2d(5.563808)
F:  4745265----T:  4747870 	 St: c0620000 Sz: 4096 	 Sm: 0 	 T: memcpy_h2d(1.758947)
F:  4747870----T:  4763565 	 St: c0621000 Sz: 126976 	 Sm: 0 	 T: memcpy_h2d(10.597569)
F:  4765587----T:  4768192 	 St: c0a40000 Sz: 4096 	 Sm: 0 	 T: memcpy_h2d(1.758947)
F:  4765587----T:  4826894 	 St: c0080000 Sz: 524288 	 Sm: 0 	 T: write_back(41.395679)
F:  4768192----T:  4798915 	 St: c0a41000 Sz: 258048 	 Sm: 0 	 T: memcpy_h2d(20.744766)
F:  4833552----T:  4836157 	 St: c0640000 Sz: 4096 	 Sm: 0 	 T: memcpy_h2d(1.758947)
F:  4836157----T:  4866880 	 St: c0641000 Sz: 258048 	 Sm: 0 	 T: memcpy_h2d(20.744766)
F:  4875793----T:  4880434 	 St: c0a80000 Sz: 28672 	 Sm: 0 	 T: memcpy_h2d(3.133693)
F:  4875793----T:  4997353 	 St: c0100000 Sz: 1048576 	 Sm: 0 	 T: write_back(82.079674)
F:  4880434----T:  4938446 	 St: c0a87000 Sz: 495616 	 Sm: 0 	 T: memcpy_h2d(39.170830)
F:  4940359----T:  4942964 	 St: c0680000 Sz: 4096 	 Sm: 0 	 T: memcpy_h2d(1.758947)
F:  4942964----T:  5003800 	 St: c0681000 Sz: 520192 	 Sm: 0 	 T: memcpy_h2d(41.077652)
F:  5028528----T:  5031133 	 St: c0b00000 Sz: 4096 	 Sm: 0 	 T: memcpy_h2d(1.758947)
F:  5028528----T:  5037230 	 St: c0800000 Sz: 65536 	 Sm: 0 	 T: write_back(5.875760)
F:  5037230----T:  5045932 	 St: c0810000 Sz: 65536 	 Sm: 0 	 T: write_back(5.875760)
F:  5045932----T:  5062095 	 St: c0820000 Sz: 131072 	 Sm: 0 	 T: write_back(10.913572)
F:  5062095----T:  5093288 	 St: c0840000 Sz: 262144 	 Sm: 0 	 T: write_back(21.062120)
F:  5093288----T:  5214377 	 St: c0b01000 Sz: 1044480 	 Sm: 0 	 T: memcpy_h2d(81.761650)
F:  5093288----T:  5154595 	 St: c0880000 Sz: 524288 	 Sm: 0 	 T: write_back(41.395679)
F:  5221161----T:  5224247 	 St: c0700000 Sz: 12288 	 Sm: 0 	 T: memcpy_h2d(2.083727)
F:  5221161----T:  5342721 	 St: c0900000 Sz: 1048576 	 Sm: 0 	 T: write_back(82.079674)
F:  5224247----T:  5344395 	 St: c0703000 Sz: 1036288 	 Sm: 0 	 T: memcpy_h2d(81.126266)
F:  5632553----T:  7075796 	 	 	 Kl: 4 	 Sm: 0 	 T: kernel_launch(974.505737)
F:  5633293----T:  5636379 	 St: c0800000 Sz: 12288 	 Sm: 0 	 T: memcpy_h2d(2.083727)
F:  5633293----T:  5641995 	 St: c0200000 Sz: 65536 	 Sm: 0 	 T: write_back(5.875760)
F:  5636379----T:  5643701 	 St: c0803000 Sz: 53248 	 Sm: 0 	 T: memcpy_h2d(4.943957)
F:  5641995----T:  5650697 	 St: c0210000 Sz: 65536 	 Sm: 0 	 T: write_back(5.875760)
F:  5643701----T:  5646787 	 St: c0810000 Sz: 12288 	 Sm: 0 	 T: memcpy_h2d(2.083727)
F:  5646787----T:  5654109 	 St: c0813000 Sz: 53248 	 Sm: 0 	 T: memcpy_h2d(4.943957)
F:  5650697----T:  5666860 	 St: c0220000 Sz: 131072 	 Sm: 0 	 T: write_back(10.913572)
F:  5654109----T:  5657195 	 St: c0820000 Sz: 12288 	 Sm: 0 	 T: memcpy_h2d(2.083727)
F:  5657195----T:  5671953 	 St: c0823000 Sz: 118784 	 Sm: 0 	 T: memcpy_h2d(9.964889)
F:  5666861----T:  5698054 	 St: c0240000 Sz: 262144 	 Sm: 0 	 T: write_back(21.062120)
F:  5671953----T:  5674558 	 St: c0000000 Sz: 4096 	 Sm: 0 	 T: memcpy_h2d(1.758947)
F:  5674558----T:  5682798 	 St: c0001000 Sz: 61440 	 Sm: 0 	 T: memcpy_h2d(5.563808)
F:  5682798----T:  5685403 	 St: c0010000 Sz: 4096 	 Sm: 0 	 T: memcpy_h2d(1.758947)
F:  5685403----T:  5693643 	 St: c0011000 Sz: 61440 	 Sm: 0 	 T: memcpy_h2d(5.563808)
F:  5693643----T:  5696248 	 St: c0020000 Sz: 4096 	 Sm: 0 	 T: memcpy_h2d(1.758947)
F:  5696248----T:  5711943 	 St: c0021000 Sz: 126976 	 Sm: 0 	 T: memcpy_h2d(10.597569)
F:  5719993----T:  5722598 	 St: c0840000 Sz: 4096 	 Sm: 0 	 T: memcpy_h2d(1.758947)
F:  5719993----T:  5781300 	 St: c0280000 Sz: 524288 	 Sm: 0 	 T: write_back(41.395679)
F:  5722598----T:  5753321 	 St: c0841000 Sz: 258048 	 Sm: 0 	 T: memcpy_h2d(20.744766)
F:  5755246----T:  5757851 	 St: c0040000 Sz: 4096 	 Sm: 0 	 T: memcpy_h2d(1.758947)
F:  5757851----T:  5788574 	 St: c0041000 Sz: 258048 	 Sm: 0 	 T: memcpy_h2d(20.744766)
F:  5802157----T:  5805243 	 St: c0880000 Sz: 12288 	 Sm: 0 	 T: memcpy_h2d(2.083727)
F:  5802157----T:  5923717 	 St: c0300000 Sz: 1048576 	 Sm: 0 	 T: write_back(82.079674)
F:  5805243----T:  5865138 	 St: c0883000 Sz: 512000 	 Sm: 0 	 T: memcpy_h2d(40.442268)
F:  5867036----T:  5869641 	 St: c0080000 Sz: 4096 	 Sm: 0 	 T: memcpy_h2d(1.758947)
F:  5869641----T:  5930477 	 St: c0081000 Sz: 520192 	 Sm: 0 	 T: memcpy_h2d(41.077652)
F:  5962517----T:  5965603 	 St: c0900000 Sz: 12288 	 Sm: 0 	 T: memcpy_h2d(2.083727)
F:  5962517----T:  5971219 	 St: c0a00000 Sz: 65536 	 Sm: 0 	 T: write_back(5.875760)
F:  5971219----T:  5979921 	 St: c0a10000 Sz: 65536 	 Sm: 0 	 T: write_back(5.875760)
F:  5979921----T:  5996084 	 St: c0a20000 Sz: 131072 	 Sm: 0 	 T: write_back(10.913572)
F:  5996084----T:  6027277 	 St: c0a40000 Sz: 262144 	 Sm: 0 	 T: write_back(21.062120)
F:  6027277----T:  6147425 	 St: c0903000 Sz: 1036288 	 Sm: 0 	 T: memcpy_h2d(81.126266)
F:  6027277----T:  6088584 	 St: c0a80000 Sz: 524288 	 Sm: 0 	 T: write_back(41.395679)
F:  6152923----T:  6155528 	 St: c0100000 Sz: 4096 	 Sm: 0 	 T: memcpy_h2d(1.758947)
F:  6152923----T:  6274483 	 St: c0b00000 Sz: 1048576 	 Sm: 0 	 T: write_back(82.079674)
F:  6155528----T:  6276617 	 St: c0101000 Sz: 1044480 	 Sm: 0 	 T: memcpy_h2d(81.761650)
F:  6336953----T:  6340039 	 St: c0a00000 Sz: 12288 	 Sm: 0 	 T: memcpy_h2d(2.083727)
F:  6336953----T:  6345655 	 St: c0610000 Sz: 65536 	 Sm: 0 	 T: write_back(5.875760)
F:  6340039----T:  6347361 	 St: c0a03000 Sz: 53248 	 Sm: 0 	 T: memcpy_h2d(4.943957)
F:  6345656----T:  6354358 	 St: c0400000 Sz: 65536 	 Sm: 0 	 T: write_back(5.875760)
F:  6347361----T:  6349966 	 St: c0610000 Sz: 4096 	 Sm: 0 	 T: memcpy_h2d(1.758947)
F:  6349966----T:  6358206 	 St: c0611000 Sz: 61440 	 Sm: 0 	 T: memcpy_h2d(5.563808)
F:  6354359----T:  6363061 	 St: c0410000 Sz: 65536 	 Sm: 0 	 T: write_back(5.875760)
F:  6358206----T:  6360811 	 St: c0200000 Sz: 4096 	 Sm: 0 	 T: memcpy_h2d(1.758947)
F:  6360811----T:  6369051 	 St: c0201000 Sz: 61440 	 Sm: 0 	 T: memcpy_h2d(5.563808)
F:  6363062----T:  6379225 	 St: c0420000 Sz: 131072 	 Sm: 0 	 T: write_back(10.913572)
F:  6369051----T:  6371656 	 St: c0a10000 Sz: 4096 	 Sm: 0 	 T: memcpy_h2d(1.758947)
F:  6371656----T:  6379896 	 St: c0a11000 Sz: 61440 	 Sm: 0 	 T: memcpy_h2d(5.563808)
F:  6381652----T:  6384738 	 St: c0a20000 Sz: 12288 	 Sm: 0 	 T: memcpy_h2d(2.083727)
F:  6381652----T:  6412845 	 St: c0440000 Sz: 262144 	 Sm: 0 	 T: write_back(21.062120)
F:  6384738----T:  6399496 	 St: c0a23000 Sz: 118784 	 Sm: 0 	 T: memcpy_h2d(9.964889)
F:  6399496----T:  6402101 	 St: c0210000 Sz: 4096 	 Sm: 0 	 T: memcpy_h2d(1.758947)
F:  6402101----T:  6410341 	 St: c0211000 Sz: 61440 	 Sm: 0 	 T: memcpy_h2d(5.563808)
F:  6410341----T:  6412946 	 St: c0220000 Sz: 4096 	 Sm: 0 	 T: memcpy_h2d(1.758947)
F:  6412946----T:  6428641 	 St: c0221000 Sz: 126976 	 Sm: 0 	 T: memcpy_h2d(10.597569)
F:  6430649----T:  6433254 	 St: c0a40000 Sz: 4096 	 Sm: 0 	 T: memcpy_h2d(1.758947)
F:  6430649----T:  6491956 	 St: c0480000 Sz: 524288 	 Sm: 0 	 T: write_back(41.395679)
F:  6433254----T:  6463977 	 St: c0a41000 Sz: 258048 	 Sm: 0 	 T: memcpy_h2d(20.744766)
F:  6498577----T:  6501182 	 St: c0240000 Sz: 4096 	 Sm: 0 	 T: memcpy_h2d(1.758947)
F:  6501182----T:  6531905 	 St: c0241000 Sz: 258048 	 Sm: 0 	 T: memcpy_h2d(20.744766)
F:  6540892----T:  6543978 	 St: c0a80000 Sz: 12288 	 Sm: 0 	 T: memcpy_h2d(2.083727)
F:  6540892----T:  6662452 	 St: c0500000 Sz: 1048576 	 Sm: 0 	 T: write_back(82.079674)
F:  6543978----T:  6603873 	 St: c0a83000 Sz: 512000 	 Sm: 0 	 T: memcpy_h2d(40.442268)
F:  6606214----T:  6609300 	 St: c0280000 Sz: 12288 	 Sm: 0 	 T: memcpy_h2d(2.083727)
F:  6609300----T:  6669195 	 St: c0283000 Sz: 512000 	 Sm: 0 	 T: memcpy_h2d(40.442268)
F:  6693402----T:  6696007 	 St: c0b00000 Sz: 4096 	 Sm: 0 	 T: memcpy_h2d(1.758947)
F:  6693402----T:  6702104 	 St: c0800000 Sz: 65536 	 Sm: 0 	 T: write_back(5.875760)
F:  6702104----T:  6710806 	 St: c0810000 Sz: 65536 	 Sm: 0 	 T: write_back(5.875760)
F:  6710806----T:  6726969 	 St: c0820000 Sz: 131072 	 Sm: 0 	 T: write_back(10.913572)
F:  6726969----T:  6758162 	 St: c0840000 Sz: 262144 	 Sm: 0 	 T: write_back(21.062120)
F:  6758162----T:  6879251 	 St: c0b01000 Sz: 1044480 	 Sm: 0 	 T: memcpy_h2d(81.761650)
F:  6758162----T:  6819469 	 St: c0880000 Sz: 524288 	 Sm: 0 	 T: write_back(41.395679)
F:  6885856----T:  6888461 	 St: c0300000 Sz: 4096 	 Sm: 0 	 T: memcpy_h2d(1.758947)
F:  6885856----T:  7007416 	 St: c0900000 Sz: 1048576 	 Sm: 0 	 T: write_back(82.079674)
F:  6888461----T:  7009550 	 St: c0301000 Sz: 1044480 	 Sm: 0 	 T: memcpy_h2d(81.761650)
F:  7075796----T:  7078401 	 St: 0 Sz: 4096 	 Sm: 0 	 T: device_sync(1.758947)
F:  7075796----T:  7084036 	 St: 0 Sz: 61440 	 Sm: 0 	 T: device_sync(5.563808)
F:  7086641----T:  7089246 	 St: 0 Sz: 4096 	 Sm: 0 	 T: device_sync(1.758947)
F:  7086641----T:  7094881 	 St: 0 Sz: 61440 	 Sm: 0 	 T: device_sync(5.563808)
F:  7097486----T:  7100091 	 St: 0 Sz: 4096 	 Sm: 0 	 T: device_sync(1.758947)
F:  7097486----T:  7113181 	 St: 0 Sz: 126976 	 Sm: 0 	 T: device_sync(10.597569)
F:  7115786----T:  7118391 	 St: 0 Sz: 4096 	 Sm: 0 	 T: device_sync(1.758947)
F:  7115786----T:  7146509 	 St: 0 Sz: 258048 	 Sm: 0 	 T: device_sync(20.744766)
F:  7149114----T:  7151719 	 St: 0 Sz: 4096 	 Sm: 0 	 T: device_sync(1.758947)
F:  7149114----T:  7209950 	 St: 0 Sz: 520192 	 Sm: 0 	 T: device_sync(41.077652)
F:  7212555----T:  7215160 	 St: 0 Sz: 4096 	 Sm: 0 	 T: device_sync(1.758947)
F:  7212555----T:  7333644 	 St: 0 Sz: 1044480 	 Sm: 0 	 T: device_sync(81.761650)
F:  7336249----T:  7338854 	 St: 0 Sz: 4096 	 Sm: 0 	 T: device_sync(1.758947)
F:  7336249----T:  7344489 	 St: 0 Sz: 61440 	 Sm: 0 	 T: device_sync(5.563808)
F:  7347094----T:  7349699 	 St: 0 Sz: 4096 	 Sm: 0 	 T: device_sync(1.758947)
F:  7347094----T:  7355334 	 St: 0 Sz: 61440 	 Sm: 0 	 T: device_sync(5.563808)
F:  7357939----T:  7360544 	 St: 0 Sz: 4096 	 Sm: 0 	 T: device_sync(1.758947)
F:  7357939----T:  7373634 	 St: 0 Sz: 126976 	 Sm: 0 	 T: device_sync(10.597569)
F:  7376239----T:  7378844 	 St: 0 Sz: 4096 	 Sm: 0 	 T: device_sync(1.758947)
F:  7376239----T:  7406962 	 St: 0 Sz: 258048 	 Sm: 0 	 T: device_sync(20.744766)
F:  7409567----T:  7412172 	 St: 0 Sz: 4096 	 Sm: 0 	 T: device_sync(1.758947)
F:  7409567----T:  7470403 	 St: 0 Sz: 520192 	 Sm: 0 	 T: device_sync(41.077652)
F:  7473008----T:  7475613 	 St: 0 Sz: 4096 	 Sm: 0 	 T: device_sync(1.758947)
F:  7473008----T:  7594097 	 St: 0 Sz: 1044480 	 Sm: 0 	 T: device_sync(81.761650)
F:  7596702----T:  7599307 	 St: 0 Sz: 4096 	 Sm: 0 	 T: device_sync(1.758947)
F:  7596702----T:  7604942 	 St: 0 Sz: 61440 	 Sm: 0 	 T: device_sync(5.563808)
F:  7607547----T:  7610152 	 St: 0 Sz: 4096 	 Sm: 0 	 T: device_sync(1.758947)
F:  7607547----T:  7615787 	 St: 0 Sz: 61440 	 Sm: 0 	 T: device_sync(5.563808)
F:  7618392----T:  7620997 	 St: 0 Sz: 4096 	 Sm: 0 	 T: device_sync(1.758947)
F:  7618392----T:  7634087 	 St: 0 Sz: 126976 	 Sm: 0 	 T: device_sync(10.597569)
F:  7636692----T:  7639297 	 St: 0 Sz: 4096 	 Sm: 0 	 T: device_sync(1.758947)
F:  7636692----T:  7667415 	 St: 0 Sz: 258048 	 Sm: 0 	 T: device_sync(20.744766)
F:  7670020----T:  7672625 	 St: 0 Sz: 4096 	 Sm: 0 	 T: device_sync(1.758947)
F:  7670020----T:  7730856 	 St: 0 Sz: 520192 	 Sm: 0 	 T: device_sync(41.077652)
F:  7733461----T:  7736066 	 St: 0 Sz: 4096 	 Sm: 0 	 T: device_sync(1.758947)
F:  7733461----T:  7847018 	 St: 0 Sz: 978944 	 Sm: 0 	 T: device_sync(76.675896)
Tot_prefetch_time: 0(cycle), 0.000000(us)
Tot_kernel_exec_time: 6187196(cycle), 4177.714844(us)
Tot_kernel_exec_time_and_fault_time: 13584791(cycle), 9172.714844(us)
Tot_memcpy_h2d_time: 4701556(cycle), 3174.582031(us)
Tot_memcpy_d2h_time: 0(cycle), 0.000000(us)
Tot_memcpy_time: 4701556(cycle), 3174.582031(us)
Tot_devicesync_time: 773827(cycle), 522.503052(us)
Tot_writeback_time: 3492884(cycle), 2358.463135(us)
Tot_dma_time: 0(cycle), 0.000000(us)
Tot_memcpy_d2h_sync_wb_time: 4266711(cycle), 2880.966309(us)
GPGPU-Sim: *** exit detected ***
