

        *** GPGPU-Sim Simulator Version 3.2.2  [build gpgpu-sim_git-commit-192e696560217fbde0ca32c0b7f1cb04a8d61fd3_modified_1] ***


GPGPU-Sim PTX: simulation mode 0 (can change with PTX_SIM_MODE_FUNC environment variable:
               1=functional simulation only, 0=detailed performance simulator)
GPGPU-Sim: Configuration options:

-network_mode                           1 # Interconnection network mode
-inter_config_file   config_fermi_islip.icnt # Interconnection network config file
-gpgpu_ptx_use_cuobjdump                    1 # Use cuobjdump to extract ptx and sass from binaries
-gpgpu_experimental_lib_support                    0 # Try to extract code from cuda libraries [Broken because of unknown cudaGetExportTable]
-gpgpu_ptx_convert_to_ptxplus                    0 # Convert SASS (native ISA) to ptxplus and run ptxplus
-gpgpu_ptx_force_max_capability                   20 # Force maximum compute capability
-gpgpu_ptx_inst_debug_to_file                    0 # Dump executed instructions' debug information to file
-gpgpu_ptx_inst_debug_file       inst_debug.txt # Executed instructions' debug output file
-gpgpu_ptx_inst_debug_thread_uid                    1 # Thread UID for executed instructions' debug output
-gpgpu_simd_model                       1 # 1 = post-dominator
-gpgpu_shader_core_pipeline              2048:32 # shader core pipeline config, i.e., {<nthread>:<warpsize>}
-gpgpu_tex_cache:l1  16:128:24,L:R:m:N:L,F:128:4,128:2 # per-shader L1 texture cache  (READ-ONLY) config  {<nsets>:<bsize>:<assoc>,<rep>:<wr>:<alloc>:<wr_alloc>,<mshr>:<N>:<merge>,<mq>:<rf>}
-gpgpu_const_cache:l1 128:64:2,L:R:f:N:L,A:2:64,4 # per-shader L1 constant memory cache  (READ-ONLY) config  {<nsets>:<bsize>:<assoc>,<rep>:<wr>:<alloc>:<wr_alloc>,<mshr>:<N>:<merge>,<mq>} 
-gpgpu_cache:il1     8:128:4,L:R:f:N:L,A:2:48,4 # shader L1 instruction cache config  {<nsets>:<bsize>:<assoc>,<rep>:<wr>:<alloc>:<wr_alloc>,<mshr>:<N>:<merge>,<mq>} 
-gpgpu_cache:dl1     64:128:6,L:L:m:N:H,A:128:8,8 # per-shader L1 data cache config  {<nsets>:<bsize>:<assoc>,<rep>:<wr>:<alloc>:<wr_alloc>,<mshr>:<N>:<merge>,<mq> | none}
-gpgpu_cache:dl1PrefL1                 none # per-shader L1 data cache config  {<nsets>:<bsize>:<assoc>,<rep>:<wr>:<alloc>:<wr_alloc>,<mshr>:<N>:<merge>,<mq> | none}
-gpgpu_cache:dl1PrefShared                 none # per-shader L1 data cache config  {<nsets>:<bsize>:<assoc>,<rep>:<wr>:<alloc>:<wr_alloc>,<mshr>:<N>:<merge>,<mq> | none}
-gmem_skip_L1D                          1 # global memory access skip L1D cache (implements -Xptxas -dlcm=cg, default=no skip)
-gpgpu_perfect_mem                      0 # enable perfect memory mode (no cache miss)
-n_regfile_gating_group                    4 # group of lanes that should be read/written together)
-gpgpu_clock_gated_reg_file                    0 # enable clock gated reg file for power calculations
-gpgpu_clock_gated_lanes                    0 # enable clock gated lanes for power calculations
-gpgpu_shader_registers                65536 # Number of registers per shader core. Limits number of concurrent CTAs. (default 8192)
-gpgpu_shader_cta                      32 # Maximum number of concurrent CTAs in shader (default 8)
-gpgpu_num_cta_barriers                   16 # Maximum number of named barriers per CTA (default 16)
-gpgpu_n_clusters                      28 # number of processing clusters
-gpgpu_n_cores_per_cluster                    1 # number of simd cores per cluster
-gpgpu_n_cluster_ejection_buffer_size                    8 # number of packets in ejection buffer
-gpgpu_n_ldst_response_buffer_size                    2 # number of response packets in ld/st unit ejection buffer
-gpgpu_shmem_size                   16384 # Size of shared memory per shader core (default 16kB)
-gpgpu_shmem_size                   98304 # Size of shared memory per shader core (default 16kB)
-gpgpu_shmem_size_PrefL1                16384 # Size of shared memory per shader core (default 16kB)
-gpgpu_shmem_size_PrefShared                16384 # Size of shared memory per shader core (default 16kB)
-gpgpu_shmem_num_banks                   32 # Number of banks in the shared memory in each shader core (default 16)
-gpgpu_shmem_limited_broadcast                    0 # Limit shared memory to do one broadcast per cycle (default on)
-gpgpu_shmem_warp_parts                    1 # Number of portions a warp is divided into for shared memory bank conflict check 
-gpgpu_warpdistro_shader                   -1 # Specify which shader core to collect the warp size distribution from
-gpgpu_warp_issue_shader                    0 # Specify which shader core to collect the warp issue distribution from
-gpgpu_local_mem_map                    1 # Mapping from local memory space address to simulated GPU physical address space (default = enabled)
-gpgpu_num_reg_banks                   32 # Number of register banks (default = 8)
-gpgpu_reg_bank_use_warp_id                    0 # Use warp ID in mapping registers to banks (default = off)
-gpgpu_operand_collector_num_units_sp                   20 # number of collector units (default = 4)
-gpgpu_operand_collector_num_units_sfu                    4 # number of collector units (default = 4)
-gpgpu_operand_collector_num_units_mem                    8 # number of collector units (default = 2)
-gpgpu_operand_collector_num_units_gen                    0 # number of collector units (default = 0)
-gpgpu_operand_collector_num_in_ports_sp                    4 # number of collector unit in ports (default = 1)
-gpgpu_operand_collector_num_in_ports_sfu                    1 # number of collector unit in ports (default = 1)
-gpgpu_operand_collector_num_in_ports_mem                    1 # number of collector unit in ports (default = 1)
-gpgpu_operand_collector_num_in_ports_gen                    0 # number of collector unit in ports (default = 0)
-gpgpu_operand_collector_num_out_ports_sp                    4 # number of collector unit in ports (default = 1)
-gpgpu_operand_collector_num_out_ports_sfu                    1 # number of collector unit in ports (default = 1)
-gpgpu_operand_collector_num_out_ports_mem                    1 # number of collector unit in ports (default = 1)
-gpgpu_operand_collector_num_out_ports_gen                    0 # number of collector unit in ports (default = 0)
-gpgpu_coalesce_arch                   13 # Coalescing arch (default = 13, anything else is off for now)
-gpgpu_num_sched_per_core                    2 # Number of warp schedulers per core
-gpgpu_max_insn_issue_per_warp                    2 # Max number of instructions that can be issued per warp in one cycle by scheduler
-gpgpu_simt_core_sim_order                    1 # Select the simulation order of cores in a cluster (0=Fix, 1=Round-Robin)
-gpgpu_pipeline_widths        4,1,1,4,1,1,6 # Pipeline widths ID_OC_SP,ID_OC_SFU,ID_OC_MEM,OC_EX_SP,OC_EX_SFU,OC_EX_MEM,EX_WB
-gpgpu_num_sp_units                     4 # Number of SP units (default=1)
-gpgpu_num_sfu_units                    1 # Number of SF units (default=1)
-gpgpu_num_mem_units                    1 # Number if ldst units (default=1) WARNING: not hooked up to anything
-gpgpu_scheduler                      gto # Scheduler configuration: < lrr | gto | two_level_active > If two_level_active:<num_active_warps>:<inner_prioritization>:<outer_prioritization>For complete list of prioritization values see shader.h enum scheduler_prioritization_typeDefault: gto
-gpgpu_concurrent_kernel_sm                    0 # Support concurrent kernels on a SM (default = disabled)
-tlb_size                            4096 # Number of tlb entries per SM.
-gpgpu_dram_scheduler                    1 # 0 = fifo, 1 = FR-FCFS (defaul)
-gpgpu_dram_partition_queues              8:8:8:8 # i2$:$2d:d2$:$2i
-l2_ideal                               0 # Use a ideal L2 cache that always hit
-gpgpu_cache:dl2     64:128:16,L:B:m:W:L,A:1024:1024,4:0,32 # unified banked L2 data cache config  {<nsets>:<bsize>:<assoc>,<rep>:<wr>:<alloc>:<wr_alloc>,<mshr>:<N>:<merge>,<mq>}
-gpgpu_cache:dl2_texture_only                    0 # L2 cache used for texture only
-gpgpu_n_mem                           11 # number of memory modules (e.g. memory controllers) in gpu
-gpgpu_n_sub_partition_per_mchannel                    2 # number of memory subpartition in each memory module
-gpgpu_n_mem_per_ctrlr                    1 # number of memory chips per memory controller
-gpgpu_memlatency_stat                   14 # track and display latency statistics 0x2 enables MC, 0x4 enables queue logs
-gpgpu_frfcfs_dram_sched_queue_size                   64 # 0 = unlimited (default); # entries per chip
-gpgpu_dram_return_queue_size                  116 # 0 = unlimited (default); # entries per chip
-gpgpu_dram_buswidth                    4 # default = 4 bytes (8 bytes per cycle at DDR)
-gpgpu_dram_burst_length                    8 # Burst length of each DRAM request (default = 4 data bus cycle)
-dram_data_command_freq_ratio                    4 # Frequency ratio between DRAM data bus and command bus (default = 2 times, i.e. DDR)
-gpgpu_dram_timing_opt nbk=16:CCD=2:RRD=6:RCD=12:RAS=28:RP=12:RC=40: CL=12:WL=4:CDLR=5:WR=12:nbkgrp=1:CCDL=0:RTPL=0 # DRAM timing parameters = {nbk:tCCD:tRRD:tRCD:tRAS:tRP:tRC:CL:WL:tCDLR:tWR:nbkgrp:tCCDL:tRTPL}
-rop_latency                          120 # ROP queue latency (default 85)
-dram_latency                         100 # DRAM latency (default 30)
-gpgpu_mem_addr_mapping dramid@8;00000000.00000000.00000000.00000000.0000RRRR.RRRRRRRR.RBBBCCCC.BCCSSSSS # mapping memory address to dram model {dramid@<start bit>;<memory address map>}
-gpgpu_mem_addr_test                    0 # run sweep test to check address mapping for aliased address
-gpgpu_mem_address_mask                    1 # 0 = old addressing mask, 1 = new addressing mask, 2 = new add. mask + flipped bank sel and chip sel bits
-gpuwattch_xml_file  gpuwattch_geforcegtx1080ti.xml # GPUWattch XML file
-power_simulation_enabled                    1 # Turn on power simulator (1=On, 0=Off)
-power_per_cycle_dump                    0 # Dump detailed power output each cycle
-power_trace_enabled                    0 # produce a file for the power trace (1=On, 0=Off)
-power_trace_zlevel                     6 # Compression level of the power trace output log (0=no comp, 9=highest)
-steady_power_levels_enabled                    0 # produce a file for the steady power levels (1=On, 0=Off)
-steady_state_definition                  8:4 # allowed deviation:number of samples
-gpgpu_max_cycle                        0 # terminates gpu simulation early (0 = no limit)
-gpgpu_max_insn                         0 # terminates gpu simulation early (0 = no limit)
-gpgpu_max_cta                          0 # terminates gpu simulation early (0 = no limit)
-gpgpu_runtime_stat                   500 # display runtime statistics such as dram utilization {<freq>:<flag>}
-liveness_message_freq                    1 # Minimum number of seconds between simulation liveness messages (0 = always print)
-gpgpu_flush_l1_cache                    0 # Flush L1 cache at the end of each kernel call
-gpgpu_flush_l2_cache                    0 # Flush L2 cache at the end of each kernel call
-gpgpu_deadlock_detect                    0 # Stop the simulation at deadlock (1=on (default), 0=off)
-gpgpu_ptx_instruction_classification                    0 # if enabled will classify ptx instruction types per kernel (Max 255 kernels now)
-gpgpu_ptx_sim_mode                     0 # Select between Performance (default) or Functional simulation (1)
-gpgpu_clock_domains 1481.0:2962.0:1481.0:2750.0 # Clock Domain Frequencies in MhZ {<Core Clock>:<ICNT Clock>:<L2 Clock>:<DRAM Clock>}
-gpgpu_max_concurrent_kernel                    8 # maximum kernels that can run concurrently on GPU
-gpgpu_cflog_interval                    0 # Interval between each snapshot in control flow logger
-visualizer_enabled                     0 # Turn on visualizer output (1=On, 0=Off)
-visualizer_outputfile                 NULL # Specifies the output log file for visualizer
-visualizer_zlevel                      6 # Compression level of the visualizer output log (0=no comp, 9=highest)
-trace_enabled                          0 # Turn on traces
-trace_components                    none # comma seperated list of traces to enable. Complete list found in trace_streams.tup. Default none
-trace_sampling_core                    0 # The core which is printed using CORE_DPRINTF. Default 0
-trace_sampling_memory_partition                   -1 # The memory partition which is printed using MEMPART_DPRINTF. Default -1 (i.e. all)
-gddr_size                            1GB # Size of GDDR in MB/GB.(GLOBAL_HEAP_START, GLOBAL_HEAP_START + gddr_size) would be used for unmanged memory, (GLOBAL_HEAP_START + gddr_size, GLOBAL_HEAP_START + gddr_size*2) would be used for managed memory. 
-page_table_walk_latency                  100 # Average page table walk latency (in core cycle).
-eviction_policy                      lru # Memory eviction policy: lru or random.
-percentage_of_free_page_buffer                    0 # Percentage of free page buffer to trigger the page eviction.
-page_size                            4KB # GDDR page size, only 4KB/2MB avaliable.
-pcie_bandwith                   16.0GB/s # PCI-e bandwith per direction, in GB/s.
-enable_nvlink                          1 # Enable nvlink 2.0, 150.0GB/s
-enable_rdma                            0 # Enable remote direct memory access
-migrate_threshold                     10 # Access counter threshold for migrating the page from cpu to gpu
-sim_prof_enable                        1 # Enable gpgpu-sim profiler
-hardware_prefetch                      1 # Enable gpgpu-sim hardware prefetcher
-page_fault_latency                 66645 # Average fault latency (in core cycle).
-enable_accurate_simulation                    0 # Enable page fault functional simulation.
-enable_ptx_file_line_stats                    1 # Turn on PTX source line statistic profiling. (1 = On)
-ptx_line_stats_filename gpgpu_inst_stats.txt # Output file for PTX source line statistics.
-gpgpu_kernel_launch_latency               222150 # Kernel launch latency in cycles. Default: 0
-gpgpu_cdp_enabled                      0 # Turn on CDP
-save_embedded_ptx                      0 # saves ptx files embedded in binary as <n>.ptx
-keep                                   0 # keep intermediate files created by GPGPU-Sim when interfacing with external programs
-gpgpu_ptx_save_converted_ptxplus                    0 # Saved converted ptxplus to a file
-ptx_opcode_latency_int         4,13,4,5,145 # Opcode latencies for integers <ADD,MAX,MUL,MAD,DIV>Default 1,1,19,25,145
-ptx_opcode_latency_fp          4,13,4,5,39 # Opcode latencies for single precision floating points <ADD,MAX,MUL,MAD,DIV>Default 1,1,1,1,30
-ptx_opcode_latency_dp         8,19,8,8,330 # Opcode latencies for double precision floating points <ADD,MAX,MUL,MAD,DIV>Default 8,8,8,8,335
-ptx_opcode_initiation_int            1,2,2,2,8 # Opcode initiation intervals for integers <ADD,MAX,MUL,MAD,DIV>Default 1,1,4,4,32
-ptx_opcode_initiation_fp            1,2,1,1,4 # Opcode initiation intervals for single precision floating points <ADD,MAX,MUL,MAD,DIV>Default 1,1,1,1,5
-ptx_opcode_initiation_dp          1,2,1,1,130 # Opcode initiation intervals for double precision floating points <ADD,MAX,MUL,MAD,DIV>Default 8,8,8,8,130
-cdp_latency         7200,8000,100,12000,1600 # CDP API latency <cudaStreamCreateWithFlags, cudaGetParameterBufferV2_init_perWarp, cudaGetParameterBufferV2_perKernel, cudaLaunchDeviceV2_init_perWarp, cudaLaunchDevicV2_perKernel>Default 7200,8000,100,12000,1600
DRAM Timing Options:
nbk                                    16 # number of banks
CCD                                     2 # column to column delay
RRD                                     6 # minimal delay between activation of rows in different banks
RCD                                    12 # row to column delay
RAS                                    28 # time needed to activate row
RP                                     12 # time needed to precharge (deactivate) row
RC                                     40 # row cycle time
CDLR                                    5 # switching from write to read (changes tWTR)
WR                                     12 # last data-in to row precharge
CL                                     12 # CAS latency
WL                                      4 # Write latency
nbkgrp                                  1 # number of bank groups
CCDL                                    0 # column to column delay between accesses to different bank groups
RTPL                                    0 # read to precharge delay between accesses to different bank groups
Total number of memory sub partition = 22
addr_dec_mask[CHIP]  = 0000000000000000 	high:64 low:0
addr_dec_mask[BK]    = 0000000000007080 	high:15 low:7
addr_dec_mask[ROW]   = 000000000fff8000 	high:28 low:15
addr_dec_mask[COL]   = 0000000000000f7f 	high:12 low:0
addr_dec_mask[BURST] = 000000000000001f 	high:5 low:0
sub_partition_id_mask = 0000000000000080
GPGPU-Sim uArch: clock freqs: 1481000000.000000:2962000000.000000:1481000000.000000:2750000000.000000
GPGPU-Sim uArch: clock periods: 0.00000000067521944632:0.00000000033760972316:0.00000000067521944632:0.00000000036363636364
*** Initializing Memory Statistics ***
GPGPU-Sim uArch: interconnect node map (shaderID+MemID to icntID)
GPGPU-Sim uArch: Memory nodes ID start from index: 28
GPGPU-Sim uArch:    0   1   2   3   4   5   6
GPGPU-Sim uArch:    7   8   9  10  11  12  13
GPGPU-Sim uArch:   14  15  16  17  18  19  20
GPGPU-Sim uArch:   21  22  23  24  25  26  27
GPGPU-Sim uArch:   28  29  30  31  32  33  34
GPGPU-Sim uArch:   35  36  37  38  39  40  41
GPGPU-Sim uArch:   42  43  44  45  46  47  48
GPGPU-Sim uArch:   49
GPGPU-Sim uArch: interconnect node reverse map (icntID to shaderID+MemID)
GPGPU-Sim uArch: Memory nodes start from ID: 28
GPGPU-Sim uArch:    0   1   2   3   4   5   6
GPGPU-Sim uArch:    7   8   9  10  11  12  13
GPGPU-Sim uArch:   14  15  16  17  18  19  20
GPGPU-Sim uArch:   21  22  23  24  25  26  27
GPGPU-Sim uArch:   28  29  30  31  32  33  34
GPGPU-Sim uArch:   35  36  37  38  39  40  41
GPGPU-Sim uArch:   42  43  44  45  46  47  48
GPGPU-Sim uArch:   49
0432c3650aa69d307243153c4577b046  /home/gpuser/Documents/gpgpu-sim_UVM_nvlink_rdma_without_eviction/benchmarks/Managed/bfs/bfs
GPGPU-Sim uArch: performance model initialization complete.
GPGPU-Sim PTX: __cudaRegisterFatBinary, fat_cubin_handle = 1, filename=default
self exe links to: /home/gpuser/Documents/gpgpu-sim_UVM_nvlink_rdma_without_eviction/benchmarks/Managed/bfs/bfs
Running md5sum using "md5sum /home/gpuser/Documents/gpgpu-sim_UVM_nvlink_rdma_without_eviction/benchmarks/Managed/bfs/bfs "
Parsing file _cuobjdump_complete_output_K7mBUj
######### cuobjdump parser ########
## Adding new section ELF
Adding arch: sm_20
Adding identifier: default
## Adding new section ELF
Adding arch: sm_20
Adding identifier: default
## Adding new section PTX
Adding ptx filename: _cuobjdump_1.ptx
Adding arch: sm_20
Adding identifier: default
Done parsing!!!
GPGPU-Sim PTX: __cudaRegisterFunction _Z7Kernel2PbS_S_S_i : hostFun 0x0x401649, fat_cubin_handle = 1
GPGPU-Sim PTX: instruction assembly for function '_Z6KernelP4NodePiPbS2_S2_S1_i'...   done.
GPGPU-Sim PTX: finding reconvergence points for '_Z6KernelP4NodePiPbS2_S2_S1_i'...
GPGPU-Sim PTX: Finding dominators for '_Z6KernelP4NodePiPbS2_S2_S1_i'...
GPGPU-Sim PTX: Finding immediate dominators for '_Z6KernelP4NodePiPbS2_S2_S1_i'...
GPGPU-Sim PTX: Finding postdominators for '_Z6KernelP4NodePiPbS2_S2_S1_i'...
GPGPU-Sim PTX: Finding immediate postdominators for '_Z6KernelP4NodePiPbS2_S2_S1_i'...
GPGPU-Sim PTX: pre-decoding instructions for '_Z6KernelP4NodePiPbS2_S2_S1_i'...
GPGPU-Sim PTX: reconvergence points for _Z6KernelP4NodePiPbS2_S2_S1_i...
GPGPU-Sim PTX:  1 (potential) branch divergence @  PC=0x060 (_1.ptx:42) @%p1 bra BB0_7;
GPGPU-Sim PTX:    immediate post dominator      @  PC=0x1e8 (_1.ptx:101) ret;
GPGPU-Sim PTX:  2 (potential) branch divergence @  PC=0x090 (_1.ptx:49) @%p2 bra BB0_7;
GPGPU-Sim PTX:    immediate post dominator      @  PC=0x1e8 (_1.ptx:101) ret;
GPGPU-Sim PTX:  3 (potential) branch divergence @  PC=0x0d8 (_1.ptx:59) @%p3 bra BB0_7;
GPGPU-Sim PTX:    immediate post dominator      @  PC=0x1e8 (_1.ptx:101) ret;
GPGPU-Sim PTX:  4 (potential) branch divergence @  PC=0x160 (_1.ptx:79) @%p4 bra BB0_6;
GPGPU-Sim PTX:    immediate post dominator      @  PC=0x1b8 (_1.ptx:93) mov.u32 %r24, %r25;
GPGPU-Sim PTX:  5 (potential) branch divergence @  PC=0x1e0 (_1.ptx:98) @%p5 bra BB0_4;
GPGPU-Sim PTX:    immediate post dominator      @  PC=0x1e8 (_1.ptx:101) ret;
GPGPU-Sim PTX: ... end of reconvergence points for _Z6KernelP4NodePiPbS2_S2_S1_i
GPGPU-Sim PTX: ... done pre-decoding instructions for '_Z6KernelP4NodePiPbS2_S2_S1_i'.
GPGPU-Sim PTX: instruction assembly for function '_Z7Kernel2PbS_S_S_i'...   done.
GPGPU-Sim PTX: finding reconvergence points for '_Z7Kernel2PbS_S_S_i'...
GPGPU-Sim PTX: Finding dominators for '_Z7Kernel2PbS_S_S_i'...
GPGPU-Sim PTX: Finding immediate dominators for '_Z7Kernel2PbS_S_S_i'...
GPGPU-Sim PTX: Finding postdominators for '_Z7Kernel2PbS_S_S_i'...
GPGPU-Sim PTX: Finding immediate postdominators for '_Z7Kernel2PbS_S_S_i'...
GPGPU-Sim PTX: pre-decoding instructions for '_Z7Kernel2PbS_S_S_i'...
GPGPU-Sim PTX: reconvergence points for _Z7Kernel2PbS_S_S_i...
GPGPU-Sim PTX:  1 (potential) branch divergence @  PC=0x240 (_1.ptx:129) @%p1 bra BB1_3;
GPGPU-Sim PTX:    immediate post dominator      @  PC=0x2d0 (_1.ptx:151) ret;
GPGPU-Sim PTX:  2 (potential) branch divergence @  PC=0x270 (_1.ptx:136) @%p2 bra BB1_3;
GPGPU-Sim PTX:    immediate post dominator      @  PC=0x2d0 (_1.ptx:151) ret;
GPGPU-Sim PTX: ... end of reconvergence points for _Z7Kernel2PbS_S_S_i
GPGPU-Sim PTX: ... done pre-decoding instructions for '_Z7Kernel2PbS_S_S_i'.
GPGPU-Sim PTX: finished parsing EMBEDDED .ptx file _1.ptx
Adding _cuobjdump_1.ptx with cubin handle 1
GPGPU-Sim PTX: extracting embedded .ptx to temporary file "_ptx_nkwWp7"
Running: cat _ptx_nkwWp7 | sed 's/.version 1.5/.version 1.4/' | sed 's/, texmode_independent//' | sed 's/\(\.extern \.const\[1\] .b8 \w\+\)\[\]/\1\[1\]/' | sed 's/const\[.\]/const\[0\]/g' > _ptx2_KmwiVU
GPGPU-Sim PTX: generating ptxinfo using "$CUDA_INSTALL_PATH/bin/ptxas --gpu-name=sm_20 -v _ptx2_KmwiVU --output-file  /dev/null 2> _ptx_nkwWp7info"
GPGPU-Sim PTX: Kernel '_Z7Kernel2PbS_S_S_i' : regs=12, lmem=0, smem=0, cmem=68
GPGPU-Sim PTX: Kernel '_Z6KernelP4NodePiPbS2_S2_S1_i' : regs=15, lmem=0, smem=0, cmem=84
GPGPU-Sim PTX: removing ptxinfo using "rm -f _ptx_nkwWp7 _ptx2_KmwiVU _ptx_nkwWp7info"
GPGPU-Sim PTX: loading globals with explicit initializers... 
GPGPU-Sim PTX: finished loading globals (0 bytes total).
GPGPU-Sim PTX: loading constants with explicit initializers...  done.
GPGPU-Sim PTX: __cudaRegisterFunction _Z6KernelP4NodePiPbS2_S2_S1_i : hostFun 0x0x401519, fat_cubin_handle = 1
Reading File
Read File
Copied Everything to GPU memory
Start traversing the tree

GPGPU-Sim PTX: cudaLaunch for 0x0x401519 (mode=performance simulation) on stream 0
GPGPU-Sim PTX: pushing kernel '_Z6KernelP4NodePiPbS2_S2_S1_i' to stream 0, gridDim= (128,1,1) blockDim = (512,1,1) 
GPGPU-Sim uArch: Shader 1 bind to kernel 1 '_Z6KernelP4NodePiPbS2_S2_S1_i'
GPGPU-Sim uArch: CTA/core = 4, limited by: threads
GPGPU-Sim uArch: Shader 2 bind to kernel 1 '_Z6KernelP4NodePiPbS2_S2_S1_i'
GPGPU-Sim uArch: Shader 3 bind to kernel 1 '_Z6KernelP4NodePiPbS2_S2_S1_i'
GPGPU-Sim uArch: Shader 4 bind to kernel 1 '_Z6KernelP4NodePiPbS2_S2_S1_i'
GPGPU-Sim uArch: Shader 5 bind to kernel 1 '_Z6KernelP4NodePiPbS2_S2_S1_i'
GPGPU-Sim uArch: Shader 6 bind to kernel 1 '_Z6KernelP4NodePiPbS2_S2_S1_i'
GPGPU-Sim uArch: Shader 7 bind to kernel 1 '_Z6KernelP4NodePiPbS2_S2_S1_i'
GPGPU-Sim uArch: Shader 8 bind to kernel 1 '_Z6KernelP4NodePiPbS2_S2_S1_i'
GPGPU-Sim uArch: Shader 9 bind to kernel 1 '_Z6KernelP4NodePiPbS2_S2_S1_i'
GPGPU-Sim uArch: Shader 10 bind to kernel 1 '_Z6KernelP4NodePiPbS2_S2_S1_i'
GPGPU-Sim uArch: Shader 11 bind to kernel 1 '_Z6KernelP4NodePiPbS2_S2_S1_i'
GPGPU-Sim uArch: Shader 12 bind to kernel 1 '_Z6KernelP4NodePiPbS2_S2_S1_i'
GPGPU-Sim uArch: Shader 13 bind to kernel 1 '_Z6KernelP4NodePiPbS2_S2_S1_i'
GPGPU-Sim uArch: Shader 14 bind to kernel 1 '_Z6KernelP4NodePiPbS2_S2_S1_i'
GPGPU-Sim uArch: Shader 15 bind to kernel 1 '_Z6KernelP4NodePiPbS2_S2_S1_i'
GPGPU-Sim uArch: Shader 16 bind to kernel 1 '_Z6KernelP4NodePiPbS2_S2_S1_i'
GPGPU-Sim uArch: Shader 17 bind to kernel 1 '_Z6KernelP4NodePiPbS2_S2_S1_i'
GPGPU-Sim uArch: Shader 18 bind to kernel 1 '_Z6KernelP4NodePiPbS2_S2_S1_i'
GPGPU-Sim uArch: Shader 19 bind to kernel 1 '_Z6KernelP4NodePiPbS2_S2_S1_i'
GPGPU-Sim uArch: Shader 20 bind to kernel 1 '_Z6KernelP4NodePiPbS2_S2_S1_i'
GPGPU-Sim uArch: Shader 21 bind to kernel 1 '_Z6KernelP4NodePiPbS2_S2_S1_i'
GPGPU-Sim uArch: Shader 22 bind to kernel 1 '_Z6KernelP4NodePiPbS2_S2_S1_i'
GPGPU-Sim uArch: Shader 23 bind to kernel 1 '_Z6KernelP4NodePiPbS2_S2_S1_i'
GPGPU-Sim uArch: Shader 24 bind to kernel 1 '_Z6KernelP4NodePiPbS2_S2_S1_i'
GPGPU-Sim uArch: Shader 25 bind to kernel 1 '_Z6KernelP4NodePiPbS2_S2_S1_i'
GPGPU-Sim uArch: Shader 26 bind to kernel 1 '_Z6KernelP4NodePiPbS2_S2_S1_i'
GPGPU-Sim uArch: Shader 27 bind to kernel 1 '_Z6KernelP4NodePiPbS2_S2_S1_i'
GPGPU-Sim uArch: Shader 0 bind to kernel 1 '_Z6KernelP4NodePiPbS2_S2_S1_i'
Destroy streams for kernel 1: size 0
kernel_name = _Z6KernelP4NodePiPbS2_S2_S1_i 
kernel_launch_uid = 1 
gpu_sim_cycle = 11814
gpu_sim_insn = 1245376
gpu_ipc =     105.4153
gpu_tot_sim_cycle = 234218
gpu_tot_sim_insn = 1245376
gpu_tot_ipc =       5.3172
gpu_tot_issued_cta = 128
max_total_param_size = 0
gpu_stall_dramfull = 0
gpu_stall_icnt2sh    = 2846
partiton_reqs_in_parallel = 259908
partiton_reqs_in_parallel_total    = 0
partiton_level_parallism =      22.0000
partiton_level_parallism_total  =       1.1097
partiton_reqs_in_parallel_util = 259908
partiton_reqs_in_parallel_util_total    = 0
gpu_sim_cycle_parition_util = 11814
gpu_tot_sim_cycle_parition_util    = 0
partiton_level_parallism_util =      22.0000
partiton_level_parallism_util_total  =      22.0000
partiton_replys_in_parallel = 2220
partiton_replys_in_parallel_total    = 0
L2_BW  =      17.8111 GB/Sec
L2_BW_total  =       0.8984 GB/Sec
gpu_total_sim_rate=177910

========= Core cache stats =========
L1I_cache:
	L1I_total_cache_accesses = 22632
	L1I_total_cache_misses = 2778
	L1I_total_cache_miss_rate = 0.1227
	L1I_total_cache_pending_hits = 0
	L1I_total_cache_reservation_fails = 6846
L1D_cache:
	L1D_cache_core[0]: Access = 0, Miss = 0, Miss_rate = -nan, Pending_hits = 0, Reservation_fails = 0
	L1D_cache_core[1]: Access = 0, Miss = 0, Miss_rate = -nan, Pending_hits = 0, Reservation_fails = 0
	L1D_cache_core[2]: Access = 0, Miss = 0, Miss_rate = -nan, Pending_hits = 0, Reservation_fails = 0
	L1D_cache_core[3]: Access = 0, Miss = 0, Miss_rate = -nan, Pending_hits = 0, Reservation_fails = 0
	L1D_cache_core[4]: Access = 0, Miss = 0, Miss_rate = -nan, Pending_hits = 0, Reservation_fails = 0
	L1D_cache_core[5]: Access = 0, Miss = 0, Miss_rate = -nan, Pending_hits = 0, Reservation_fails = 0
	L1D_cache_core[6]: Access = 0, Miss = 0, Miss_rate = -nan, Pending_hits = 0, Reservation_fails = 0
	L1D_cache_core[7]: Access = 0, Miss = 0, Miss_rate = -nan, Pending_hits = 0, Reservation_fails = 0
	L1D_cache_core[8]: Access = 0, Miss = 0, Miss_rate = -nan, Pending_hits = 0, Reservation_fails = 0
	L1D_cache_core[9]: Access = 0, Miss = 0, Miss_rate = -nan, Pending_hits = 0, Reservation_fails = 0
	L1D_cache_core[10]: Access = 0, Miss = 0, Miss_rate = -nan, Pending_hits = 0, Reservation_fails = 0
	L1D_cache_core[11]: Access = 0, Miss = 0, Miss_rate = -nan, Pending_hits = 0, Reservation_fails = 0
	L1D_cache_core[12]: Access = 0, Miss = 0, Miss_rate = -nan, Pending_hits = 0, Reservation_fails = 0
	L1D_cache_core[13]: Access = 0, Miss = 0, Miss_rate = -nan, Pending_hits = 0, Reservation_fails = 0
	L1D_cache_core[14]: Access = 0, Miss = 0, Miss_rate = -nan, Pending_hits = 0, Reservation_fails = 0
	L1D_cache_core[15]: Access = 0, Miss = 0, Miss_rate = -nan, Pending_hits = 0, Reservation_fails = 0
	L1D_cache_core[16]: Access = 0, Miss = 0, Miss_rate = -nan, Pending_hits = 0, Reservation_fails = 0
	L1D_cache_core[17]: Access = 0, Miss = 0, Miss_rate = -nan, Pending_hits = 0, Reservation_fails = 0
	L1D_cache_core[18]: Access = 0, Miss = 0, Miss_rate = -nan, Pending_hits = 0, Reservation_fails = 0
	L1D_cache_core[19]: Access = 0, Miss = 0, Miss_rate = -nan, Pending_hits = 0, Reservation_fails = 0
	L1D_cache_core[20]: Access = 0, Miss = 0, Miss_rate = -nan, Pending_hits = 0, Reservation_fails = 0
	L1D_cache_core[21]: Access = 0, Miss = 0, Miss_rate = -nan, Pending_hits = 0, Reservation_fails = 0
	L1D_cache_core[22]: Access = 0, Miss = 0, Miss_rate = -nan, Pending_hits = 0, Reservation_fails = 0
	L1D_cache_core[23]: Access = 0, Miss = 0, Miss_rate = -nan, Pending_hits = 0, Reservation_fails = 0
	L1D_cache_core[24]: Access = 0, Miss = 0, Miss_rate = -nan, Pending_hits = 0, Reservation_fails = 0
	L1D_cache_core[25]: Access = 0, Miss = 0, Miss_rate = -nan, Pending_hits = 0, Reservation_fails = 0
	L1D_cache_core[26]: Access = 0, Miss = 0, Miss_rate = -nan, Pending_hits = 0, Reservation_fails = 0
	L1D_cache_core[27]: Access = 0, Miss = 0, Miss_rate = -nan, Pending_hits = 0, Reservation_fails = 0
	L1D_total_cache_accesses = 0
	L1D_total_cache_misses = 0
	L1D_total_cache_pending_hits = 0
	L1D_total_cache_reservation_fails = 0
	L1D_cache_data_port_util = 0.000
	L1D_cache_fill_port_util = 0.000
L1C_cache:
	L1C_total_cache_accesses = 14336
	L1C_total_cache_misses = 1792
	L1C_total_cache_miss_rate = 0.1250
	L1C_total_cache_pending_hits = 0
	L1C_total_cache_reservation_fails = 4886
L1T_cache:
	L1T_total_cache_accesses = 0
	L1T_total_cache_misses = 0
	L1T_total_cache_pending_hits = 0
	L1T_total_cache_reservation_fails = 0

Total_core_cache_stats:
	Total_core_cache_stats_breakdown[GLOBAL_ACC_R][HIT] = 0
	Total_core_cache_stats_breakdown[GLOBAL_ACC_R][HIT_RESERVED] = 0
	Total_core_cache_stats_breakdown[GLOBAL_ACC_R][MISS] = 0
	Total_core_cache_stats_breakdown[GLOBAL_ACC_R][RESERVATION_FAIL] = 0
	Total_core_cache_stats_breakdown[LOCAL_ACC_R][HIT] = 0
	Total_core_cache_stats_breakdown[LOCAL_ACC_R][HIT_RESERVED] = 0
	Total_core_cache_stats_breakdown[LOCAL_ACC_R][MISS] = 0
	Total_core_cache_stats_breakdown[LOCAL_ACC_R][RESERVATION_FAIL] = 0
	Total_core_cache_stats_breakdown[CONST_ACC_R][HIT] = 12544
	Total_core_cache_stats_breakdown[CONST_ACC_R][HIT_RESERVED] = 0
	Total_core_cache_stats_breakdown[CONST_ACC_R][MISS] = 1792
	Total_core_cache_stats_breakdown[CONST_ACC_R][RESERVATION_FAIL] = 4886
	Total_core_cache_stats_breakdown[TEXTURE_ACC_R][HIT] = 0
	Total_core_cache_stats_breakdown[TEXTURE_ACC_R][HIT_RESERVED] = 0
	Total_core_cache_stats_breakdown[TEXTURE_ACC_R][MISS] = 0
	Total_core_cache_stats_breakdown[TEXTURE_ACC_R][RESERVATION_FAIL] = 0
	Total_core_cache_stats_breakdown[GLOBAL_ACC_W][HIT] = 0
	Total_core_cache_stats_breakdown[GLOBAL_ACC_W][HIT_RESERVED] = 0
	Total_core_cache_stats_breakdown[GLOBAL_ACC_W][MISS] = 0
	Total_core_cache_stats_breakdown[GLOBAL_ACC_W][RESERVATION_FAIL] = 0
	Total_core_cache_stats_breakdown[LOCAL_ACC_W][HIT] = 0
	Total_core_cache_stats_breakdown[LOCAL_ACC_W][HIT_RESERVED] = 0
	Total_core_cache_stats_breakdown[LOCAL_ACC_W][MISS] = 0
	Total_core_cache_stats_breakdown[LOCAL_ACC_W][RESERVATION_FAIL] = 0
	Total_core_cache_stats_breakdown[L1_WRBK_ACC][HIT] = 0
	Total_core_cache_stats_breakdown[L1_WRBK_ACC][HIT_RESERVED] = 0
	Total_core_cache_stats_breakdown[L1_WRBK_ACC][MISS] = 0
	Total_core_cache_stats_breakdown[L1_WRBK_ACC][RESERVATION_FAIL] = 0
	Total_core_cache_stats_breakdown[L2_WRBK_ACC][HIT] = 0
	Total_core_cache_stats_breakdown[L2_WRBK_ACC][HIT_RESERVED] = 0
	Total_core_cache_stats_breakdown[L2_WRBK_ACC][MISS] = 0
	Total_core_cache_stats_breakdown[L2_WRBK_ACC][RESERVATION_FAIL] = 0
	Total_core_cache_stats_breakdown[INST_ACC_R][HIT] = 19854
	Total_core_cache_stats_breakdown[INST_ACC_R][HIT_RESERVED] = 0
	Total_core_cache_stats_breakdown[INST_ACC_R][MISS] = 2778
	Total_core_cache_stats_breakdown[INST_ACC_R][RESERVATION_FAIL] = 6846
	Total_core_cache_stats_breakdown[L1_WR_ALLOC_R][HIT] = 0
	Total_core_cache_stats_breakdown[L1_WR_ALLOC_R][HIT_RESERVED] = 0
	Total_core_cache_stats_breakdown[L1_WR_ALLOC_R][MISS] = 0
	Total_core_cache_stats_breakdown[L1_WR_ALLOC_R][RESERVATION_FAIL] = 0
	Total_core_cache_stats_breakdown[L2_WR_ALLOC_R][HIT] = 0
	Total_core_cache_stats_breakdown[L2_WR_ALLOC_R][HIT_RESERVED] = 0
	Total_core_cache_stats_breakdown[L2_WR_ALLOC_R][MISS] = 0
	Total_core_cache_stats_breakdown[L2_WR_ALLOC_R][RESERVATION_FAIL] = 0
	Total_core_cache_stats_breakdown[CONST_ACC_R][TOTAL_ACCESS] = 14336
	Total_core_cache_stats_breakdown[INST_ACC_R][TOTAL_ACCESS] = 22632
Shader 0 warp_id issue ditsribution:
warp_id:
0, 1, 2, 3, 4, 5, 6, 7, 8, 9, 10, 11, 12, 13, 14, 15, 16, 17, 18, 19, 20, 21, 22, 23, 24, 25, 26, 27, 28, 29, 30, 31, 32, 33, 34, 35, 36, 37, 38, 39, 40, 41, 42, 43, 44, 45, 46, 47, 48, 49, 50, 51, 52, 53, 54, 55, 56, 57, 58, 59, 60, 61, 62, 63, 
distro:
23, 23, 22, 23, 22, 23, 22, 23, 23, 23, 23, 23, 23, 23, 23, 23, 23, 23, 23, 23, 23, 23, 23, 23, 23, 23, 23, 23, 23, 23, 23, 23, 23, 23, 23, 23, 23, 23, 23, 23, 23, 23, 23, 23, 23, 23, 23, 23, 23, 23, 23, 23, 23, 23, 23, 23, 23, 23, 23, 23, 23, 23, 23, 23, 
gpgpu_n_tot_thrd_icount = 1317216
gpgpu_n_tot_w_icount = 41163
gpgpu_n_stall_shd_mem = 5222
gpgpu_n_mem_read_local = 0
gpgpu_n_mem_write_local = 0
gpgpu_n_mem_read_global = 2090
gpgpu_n_mem_write_global = 17
gpgpu_n_mem_texture = 0
gpgpu_n_mem_const = 28
gpgpu_n_load_insn  = 65578
gpgpu_n_store_insn = 17
gpgpu_n_shmem_insn = 0
gpgpu_n_tex_insn = 0
gpgpu_n_const_mem_insn = 0
gpgpu_n_param_mem_insn = 458752
gpgpu_n_shmem_bkconflict = 0
gpgpu_n_cache_bkconflict = 0
gpgpu_n_intrawarp_mshr_merge = 0
gpgpu_n_cmem_portconflict = 4886
gpgpu_stall_shd_mem[c_mem][bk_conf] = 4886
gpgpu_stall_shd_mem[c_mem][mshr_rc] = 0
gpgpu_stall_shd_mem[c_mem][icnt_rc] = 0
gpgpu_stall_shd_mem[c_mem][data_port_stall] = 0
gpgpu_stall_shd_mem[t_mem][mshr_rc] = 0
gpgpu_stall_shd_mem[t_mem][icnt_rc] = 0
gpgpu_stall_shd_mem[t_mem][data_port_stall] = 0
gpgpu_stall_shd_mem[s_mem][bk_conf] = 0
gpgpu_stall_shd_mem[gl_mem][bk_conf] = 0
gpgpu_stall_shd_mem[gl_mem][coal_stall] = 3
gpgpu_stall_shd_mem[gl_mem][data_port_stall] = 0
gpgpu_stall_shd_mem[g_mem_ld][mshr_rc] = 0
gpgpu_stall_shd_mem[g_mem_ld][icnt_rc] = 333
gpgpu_stall_shd_mem[g_mem_ld][wb_icnt_rc] = 0
gpgpu_stall_shd_mem[g_mem_ld][wb_rsrv_fail] = 0
gpgpu_stall_shd_mem[g_mem_st][mshr_rc] = 0
gpgpu_stall_shd_mem[g_mem_st][icnt_rc] = 0
gpgpu_stall_shd_mem[g_mem_st][wb_icnt_rc] = 0
gpgpu_stall_shd_mem[g_mem_st][wb_rsrv_fail] = 0
gpgpu_stall_shd_mem[l_mem_ld][mshr_rc] = 0
gpgpu_stall_shd_mem[l_mem_ld][icnt_rc] = 0
gpgpu_stall_shd_mem[l_mem_ld][wb_icnt_rc] = 0
gpgpu_stall_shd_mem[l_mem_ld][wb_rsrv_fail] = 0
gpgpu_stall_shd_mem[l_mem_st][mshr_rc] = 0
gpgpu_stall_shd_mem[l_mem_st][icnt_rc] = 0
gpgpu_stall_shd_mem[l_mem_ld][wb_icnt_rc] = 0
gpgpu_stall_shd_mem[l_mem_ld][wb_rsrv_fail] = 0
gpu_reg_bank_conflict_stalls = 0
Warp Occupancy Distribution:
Stall:16033	W0_Idle:27329	W0_Scoreboard:74345	W1:203	W2:0	W3:0	W4:0	W5:0	W6:0	W7:0	W8:0	W9:0	W10:0	W11:0	W12:0	W13:0	W14:0	W15:0	W16:0	W17:0	W18:0	W19:0	W20:0	W21:0	W22:0	W23:0	W24:0	W25:0	W26:0	W27:0	W28:0	W29:0	W30:0	W31:0	W32:40960
traffic_breakdown_coretomem[CONST_ACC_R] = 224 {8:28,}
traffic_breakdown_coretomem[GLOBAL_ACC_R] = 16720 {8:2090,}
traffic_breakdown_coretomem[GLOBAL_ACC_W] = 680 {40:17,}
traffic_breakdown_coretomem[INST_ACC_R] = 680 {8:85,}
traffic_breakdown_memtocore[CONST_ACC_R] = 2016 {72:28,}
traffic_breakdown_memtocore[GLOBAL_ACC_R] = 83600 {40:2090,}
traffic_breakdown_memtocore[GLOBAL_ACC_W] = 136 {8:17,}
traffic_breakdown_memtocore[INST_ACC_R] = 11560 {136:85,}
maxmrqlatency = 81 
maxdqlatency = 0 
maxmflatency = 1791 
averagemflatency = 1005 
max_icnt2mem_latency = 1550 
max_icnt2sh_latency = 234217 
mrq_lat_table:160 	30 	51 	97 	58 	123 	41 	0 	0 	0 	0 	0 	0 	0 	0 	0 	0 	0 	0 	0 	0 	0 	0 	0 	0 	0 	0 	0 	0 	0 	0 	0 	
dq_lat_table:0 	0 	0 	0 	0 	0 	0 	0 	0 	0 	0 	0 	0 	0 	0 	0 	0 	0 	0 	0 	0 	0 	0 	0 	0 	0 	0 	0 	0 	0 	0 	0 	
mf_lat_table:0 	0 	0 	0 	0 	0 	0 	74 	260 	517 	1284 	0 	0 	0 	0 	0 	0 	0 	0 	0 	0 	0 	0 	0 	0 	0 	0 	0 	0 	0 	0 	0 	
icnt2mem_lat_table:0 	0 	125 	31 	33 	2 	199 	29 	513 	466 	822 	0 	0 	0 	0 	0 	0 	0 	0 	0 	0 	0 	0 	0 	
icnt2sh_lat_table:0 	0 	499 	1052 	559 	8 	0 	0 	0 	0 	0 	0 	0 	0 	0 	0 	0 	17 	0 	0 	0 	0 	0 	0 	
mf_lat_pw_table:0 	0 	0 	0 	0 	0 	0 	7 	7 	2 	2 	0 	0 	0 	0 	0 	0 	0 	0 	0 	0 	0 	0 	0 	0 	0 	0 	0 	0 	0 	0 	0 	
maximum concurrent accesses to same row:
dram[0]:         0         0         0         0         0         0         0         0         0         0         0         0         0         0         0         0 
dram[1]:         0         0         0         0         0         0         0         0         0         0         1         0         0         0         0         0 
dram[2]:         0         0         0         0         0        15         0         0         0         0         0         0         0         0         0         0 
dram[3]:         0         0         0         0         0         0         0         0         0         0         0         0         0         0         0         0 
dram[4]:         0         0         0         0         0         0         0         0         0         0         0         0         0         0         0         0 
dram[5]:         0         0         0         0         0         0         0         0         0         0         0         0         0         0         0         0 
dram[6]:         0         0         0         0         0         0         0         0         0         0         0         0         0         0         0         0 
dram[7]:         0         0         0         0         0         0         0         0         0         0         0         0         0         0         0         0 
dram[8]:         0         0         9         0         0         0         0         0         0         0         0         0         0         0         0         0 
dram[9]:         0         0         0         0         0         0         0         0         0         0         0         0         0         0         0         0 
dram[10]:         0         0         0         0         0         0         0         0         0         0         0         0         0         0         0         0 
maximum service time to same row:
dram[0]:         0         0      1493      1497      2181      2184         0         0         0         0         0         0         0         0         0         0 
dram[1]:         0         0      1493      1496      2182      2182         0         0         0      7490      2440      6460         0         0         0         0 
dram[2]:         0         0      1493      1497      2181      6130     10307         0     11281         0         0         0         0         0         0         0 
dram[3]:         0         0      1493      1497      2181      2182         0      7739      8595         0         0         0     11801         0         0         0 
dram[4]:         0         0      1493      1496      2181      2183      6803         0         0         0         0      6349         0         0       228       789 
dram[5]:         0         0      1493      1494      2181      2186      9451         0      9773         0         0         0     10355         0      2702      1752 
dram[6]:         0         0      1493      1494      2181      2183         0         0         0      7205      8061     10527         0         0         0     10356 
dram[7]:         0         0      1493      1494      2181      2186         0         0      4690         0         0         0         0         0         0         0 
dram[8]:         0         0      7088      1496      2181      2183         0         0         0         0      8917         0         0         0         0         0 
dram[9]:         0         0      1493      1497      2181      2186         0         0      5636         0         0         0         0         0         0         0 
dram[10]:         0         0      1493      1496      2181      2183     11713         0         0         0      7725         0         0         0         0     11179 
average row accesses per activate:
dram[0]:       inf      -nan  8.000000  8.000000 15.000000 15.000000      -nan      -nan      -nan      -nan      -nan      -nan      -nan      -nan      -nan      -nan 
dram[1]:      -nan      -nan  8.000000  8.000000 15.000000 15.000000      -nan      -nan      -nan  2.000000  1.000000  2.000000      -nan      -nan      -nan      -nan 
dram[2]:      -nan      -nan  8.000000  8.000000 15.000000  8.500000  2.000000      -nan  1.000000      -nan      -nan      -nan      -nan      -nan      -nan      -nan 
dram[3]:      -nan      -nan  9.000000  9.000000 15.000000 15.000000      -nan  4.000000  2.000000      -nan      -nan      -nan  2.000000      -nan      -nan      -nan 
dram[4]:      -nan      -nan  9.000000  9.000000 15.000000 15.000000  2.000000      -nan      -nan      -nan      -nan  1.000000      -nan      -nan  1.000000  1.000000 
dram[5]:      -nan      -nan  9.000000  9.000000 15.000000 15.000000  2.000000      -nan  1.000000      -nan      -nan      -nan  2.000000      -nan  1.000000  1.000000 
dram[6]:      -nan      -nan  9.000000  9.000000 14.000000 14.000000      -nan      -nan      -nan  1.000000  1.000000  1.000000      -nan      -nan      -nan  2.000000 
dram[7]:      -nan      -nan  9.000000  9.000000 14.000000 14.000000      -nan      -nan  1.000000      -nan      -nan      -nan      -nan      -nan      -nan      -nan 
dram[8]:      -nan      -nan  5.500000  9.000000 14.000000 14.000000      -nan      -nan      -nan      -nan  1.000000      -nan      -nan      -nan      -nan      -nan 
dram[9]:      -nan      -nan  9.000000  9.000000 14.000000 14.000000      -nan      -nan  1.000000      -nan      -nan      -nan      -nan      -nan      -nan      -nan 
dram[10]:      -nan      -nan  9.000000  9.000000 14.000000 14.000000  2.000000      -nan      -nan      -nan  2.000000      -nan      -nan      -nan      -nan  2.000000 
average row locality = 560/74 = 7.567567
number of total memory accesses made:
dram[0]:         0         0         0         0         0         0         0         0         0         0         0         0         0         0         0         0 
dram[1]:         0         0         0         0         0         0         0         0         0         0         0         0         0         0         0         0 
dram[2]:         0         0         0         0         0         0         0         0         0         0         0         0         0         0         0         0 
dram[3]:         0         0         0         0         0         0         0         0         0         0         0         0         0         0         0         0 
dram[4]:         0         0         0         0         0         0         0         0         0         0         0         0         0         0         0         0 
dram[5]:         0         0         0         0         0         0         0         0         0         0         0         0         0         0         0         0 
dram[6]:         0         0         0         0         0         0         0         0         0         0         0         0         0         0         0         0 
dram[7]:         0         0         0         0         0         0         0         0         0         0         0         0         0         0         0         0 
dram[8]:         0         0         0         0         0         0         0         0         0         0         0         0         0         0         0         0 
dram[9]:         0         0         0         0         0         0         0         0         0         0         0         0         0         0         0         0 
dram[10]:         0         0         0         0         0         0         0         0         0         0         0         0         0         0         0         0 
total accesses: 0
min_bank_accesses = 0!
min_chip_accesses = 0!
number of total read accesses:
dram[0]:         1         0         8         8        15        15         0         0         0         0         0         0         0         0         0         0 
dram[1]:         0         0         8         8        15        15         0         0         0         1         2         1         0         0         0         0 
dram[2]:         0         0         8         8        15        16         1         0         1         0         0         0         0         0         0         0 
dram[3]:         0         0         9         9        15        15         0         2         1         0         0         0         1         0         0         0 
dram[4]:         0         0         9         9        15        15         1         0         0         0         0         1         0         0         1         1 
dram[5]:         0         0         9         9        15        15         1         0         1         0         0         0         1         0         1         1 
dram[6]:         0         0         9         9        14        14         0         0         0         1         1         1         0         0         0         1 
dram[7]:         0         0         9         9        14        14         0         0         1         0         0         0         0         0         0         0 
dram[8]:         0         0        10         9        14        14         0         0         0         0         1         0         0         0         0         0 
dram[9]:         0         0         9         9        14        14         0         0         1         0         0         0         0         0         0         0 
dram[10]:         0         0         9         9        14        14         1         0         0         0         1         0         0         0         0         1 
total reads: 544
min_bank_accesses = 0!
chip skew: 53/47 = 1.13
number of total write accesses:
dram[0]:         0         0         0         0         0         0         0         0         0         0         0         0         0         0         0         0 
dram[1]:         0         0         0         0         0         0         0         0         0         1         0         1         0         0         0         0 
dram[2]:         0         0         0         0         0         1         1         0         0         0         0         0         0         0         0         0 
dram[3]:         0         0         0         0         0         0         0         2         1         0         0         0         1         0         0         0 
dram[4]:         0         0         0         0         0         0         1         0         0         0         0         0         0         0         0         0 
dram[5]:         0         0         0         0         0         0         1         0         0         0         0         0         1         0         0         0 
dram[6]:         0         0         0         0         0         0         0         0         0         0         0         0         0         0         0         1 
dram[7]:         0         0         0         0         0         0         0         0         0         0         0         0         0         0         0         0 
dram[8]:         0         0         1         0         0         0         0         0         0         0         0         0         0         0         0         0 
dram[9]:         0         0         0         0         0         0         0         0         0         0         0         0         0         0         0         0 
dram[10]:         0         0         0         0         0         0         1         0         0         0         1         0         0         0         0         1 
total reads: 16
min_bank_accesses = 0!
min_chip_accesses = 0!
average mf latency per bank:
dram[0]:       6678    none        3297      3348      4362      4514    none      none      none      none      none      none      none      none      none      none  
dram[1]:     none      none        3628      3689      4406      4582    none      none      none         473      2342       394    none      none      none      none  
dram[2]:     none      none        3661      3717      4427      4198       170    none         250    none      none      none      none      none      none      none  
dram[3]:     none      none        3580      3627      4392      4562    none         144       170    none      none      none         170    none      none      none  
dram[4]:     none      none        3527      3603      4435      4569       558    none      none      none      none         352    none      none           0         0
dram[5]:     none      none        3532      3603      4440      4554       170    none         352    none      none      none         201    none           0         0
dram[6]:     none      none        3535      3606      4617      4771    none      none      none         352       352       250    none      none      none         630
dram[7]:     none      none        3533      3592      4309      4462    none      none        1144    none      none      none      none      none      none      none  
dram[8]:     none      none        2929      3580      4322      4467    none      none      none      none         352    none      none      none      none      none  
dram[9]:     none      none        3523      3586      4346      4464    none      none        1843    none      none      none      none      none      none      none  
dram[10]:     none      none        3520      3573      4326      4458       119    none      none      none         170    none      none      none      none         236
maximum mf latency per bank:
dram[0]:        252         0      1336      1340      1369      1415         0         0         0         0         0         0         0         0         0         0
dram[1]:          0         0      1351      1372      1373      1430         0         0         0       947       904       788         0         0         0         0
dram[2]:          0         0      1365      1371      1395      1791       341         0       250         0         0         0         0         0         0         0
dram[3]:          0         0      1348      1357      1404      1447         0       341       341         0         0         0       341         0         0         0
dram[4]:          0         0      1347      1362      1405      1449      1117         0         0         0         0       352         0         0         0         0
dram[5]:          0         0      1343      1355      1410      1458       341         0       352         0         0         0       402         0         0         0
dram[6]:          0         0      1347      1353      1376      1427         0         0         0       352       352       250         0         0         0      1260
dram[7]:          0         0      1342      1352      1375      1415         0         0      1144         0         0         0         0         0         0         0
dram[8]:          0         0      1343      1350      1371      1427         0         0         0         0       352         0         0         0         0         0
dram[9]:          0         0      1338      1350      1386      1421         0         0       933         0         0         0         0         0         0         0
dram[10]:          0         0      1339      1347      1370      1409       239         0         0         0       341         0         0         0         0       472
Memory Partition 0: 
Cache L2_bank_000:
MSHR contents

Cache L2_bank_001:
MSHR contents

In Dram Latency Queue (total = 0): 
DRAM[0]: 16 bks, busW=4 BL=8 CL=12, tRRD=2 tCCD=6, tRCD=12 tRAS=28 tRP=12 tRC=40
n_cmd=21936 n_nop=21743 n_act=5 n_pre=0 n_req=47 n_rd=188 n_write=0 bw_util=0.01714
n_activity=440 dram_eff=0.8545
bk0: 4a 21918i bk1: 0a 21937i bk2: 32a 21862i bk3: 32a 21812i bk4: 60a 21784i bk5: 60a 21673i bk6: 0a 21934i bk7: 0a 21935i bk8: 0a 21935i bk9: 0a 21935i bk10: 0a 21936i bk11: 0a 21936i bk12: 0a 21936i bk13: 0a 21936i bk14: 0a 21936i bk15: 0a 21936i 
dram_util_bins: 0 0 0 0 0 0 0 0 0 0
dram_eff_bins: 0 0 0 0 0 0 0 0 0 0
mrqq: max=12 avg=0.0924508
Memory Partition 1: 
Cache L2_bank_002:
MSHR contents

Cache L2_bank_003:
MSHR contents

In Dram Latency Queue (total = 0): 
DRAM[1]: 16 bks, busW=4 BL=8 CL=12, tRRD=2 tCCD=6, tRCD=12 tRAS=28 tRP=12 tRC=40
n_cmd=21936 n_nop=21725 n_act=8 n_pre=1 n_req=52 n_rd=200 n_write=2 bw_util=0.01842
n_activity=572 dram_eff=0.7063
bk0: 0a 21937i bk1: 0a 21938i bk2: 32a 21862i bk3: 32a 21805i bk4: 60a 21773i bk5: 60a 21654i bk6: 0a 21937i bk7: 0a 21937i bk8: 0a 21937i bk9: 4a 21911i bk10: 8a 21885i bk11: 4a 21908i bk12: 0a 21934i bk13: 0a 21934i bk14: 0a 21935i bk15: 0a 21935i 
dram_util_bins: 0 0 0 0 0 0 0 0 0 0
dram_eff_bins: 0 0 0 0 0 0 0 0 0 0
mrqq: max=12 avg=0.10403
Memory Partition 2: 
Cache L2_bank_004:
MSHR contents

Cache L2_bank_005:
MSHR contents

In Dram Latency Queue (total = 0): 
DRAM[2]: 16 bks, busW=4 BL=8 CL=12, tRRD=2 tCCD=6, tRCD=12 tRAS=28 tRP=12 tRC=40
n_cmd=21936 n_nop=21730 n_act=7 n_pre=1 n_req=51 n_rd=196 n_write=2 bw_util=0.01805
n_activity=532 dram_eff=0.7444
bk0: 0a 21937i bk1: 0a 21938i bk2: 32a 21862i bk3: 32a 21806i bk4: 60a 21766i bk5: 64a 21618i bk6: 4a 21909i bk7: 0a 21934i bk8: 4a 21916i bk9: 0a 21935i bk10: 0a 21935i bk11: 0a 21936i bk12: 0a 21936i bk13: 0a 21936i bk14: 0a 21936i bk15: 0a 21937i 
dram_util_bins: 0 0 0 0 0 0 0 0 0 0
dram_eff_bins: 0 0 0 0 0 0 0 0 0 0
mrqq: max=12 avg=0.100064
Memory Partition 3: 
Cache L2_bank_006:
MSHR contents
MSHR: tag=0xc02c4400, atomic=0 1 entries : 0x7f8c7c82c340 :  mf: uid= 50823, sid01:w00, part=3, addr=0xc02c4440, load , size=32, unknown  status = IN_PARTITION_DRAM (234217), 

Cache L2_bank_007:
MSHR contents

In Dram Latency Queue (total = 0): 
DRAM[3]: 16 bks, busW=4 BL=8 CL=12, tRRD=2 tCCD=6, tRCD=12 tRAS=28 tRP=12 tRC=40
n_cmd=21936 n_nop=21718 n_act=7 n_pre=0 n_req=56 n_rd=207 n_write=4 bw_util=0.01924
n_activity=560 dram_eff=0.7536
bk0: 0a 21937i bk1: 0a 21938i bk2: 36a 21854i bk3: 36a 21797i bk4: 60a 21768i bk5: 60a 21662i bk6: 0a 21935i bk7: 8a 21892i bk8: 4a 21909i bk9: 0a 21933i bk10: 0a 21936i bk11: 0a 21936i bk12: 3a 21912i bk13: 0a 21936i bk14: 0a 21936i bk15: 0a 21936i 
dram_util_bins: 0 0 0 0 0 0 0 0 0 0
dram_eff_bins: 0 0 0 0 0 0 0 0 0 0
mrqq: max=10 avg=0.0815098
Memory Partition 4: 
Cache L2_bank_008:
MSHR contents

Cache L2_bank_009:
MSHR contents

In Dram Latency Queue (total = 0): 
DRAM[4]: 16 bks, busW=4 BL=8 CL=12, tRRD=2 tCCD=6, tRCD=12 tRAS=28 tRP=12 tRC=40
n_cmd=21936 n_nop=21719 n_act=8 n_pre=0 n_req=53 n_rd=208 n_write=1 bw_util=0.01906
n_activity=596 dram_eff=0.7013
bk0: 0a 21935i bk1: 0a 21939i bk2: 36a 21855i bk3: 36a 21792i bk4: 60a 21772i bk5: 60a 21665i bk6: 4a 21909i bk7: 0a 21935i bk8: 0a 21935i bk9: 0a 21935i bk10: 0a 21936i bk11: 4a 21916i bk12: 0a 21934i bk13: 0a 21936i bk14: 4a 21916i bk15: 4a 21915i 
dram_util_bins: 0 0 0 0 0 0 0 0 0 0
dram_eff_bins: 0 0 0 0 0 0 0 0 0 0
mrqq: max=10 avg=0.0877097
Memory Partition 5: 
Cache L2_bank_010:
MSHR contents

Cache L2_bank_011:
MSHR contents

In Dram Latency Queue (total = 0): 
DRAM[5]: 16 bks, busW=4 BL=8 CL=12, tRRD=2 tCCD=6, tRCD=12 tRAS=28 tRP=12 tRC=40
n_cmd=21936 n_nop=21713 n_act=9 n_pre=0 n_req=55 n_rd=212 n_write=2 bw_util=0.01951
n_activity=616 dram_eff=0.6948
bk0: 0a 21935i bk1: 0a 21937i bk2: 36a 21854i bk3: 36a 21792i bk4: 60a 21770i bk5: 60a 21660i bk6: 4a 21909i bk7: 0a 21933i bk8: 4a 21917i bk9: 0a 21936i bk10: 0a 21937i bk11: 0a 21937i bk12: 4a 21911i bk13: 0a 21935i bk14: 4a 21916i bk15: 4a 21915i 
dram_util_bins: 0 0 0 0 0 0 0 0 0 0
dram_eff_bins: 0 0 0 0 0 0 0 0 0 0
mrqq: max=13 avg=0.10672
Memory Partition 6: 
Cache L2_bank_012:
MSHR contents

Cache L2_bank_013:
MSHR contents

In Dram Latency Queue (total = 0): 
DRAM[6]: 16 bks, busW=4 BL=8 CL=12, tRRD=2 tCCD=6, tRCD=12 tRAS=28 tRP=12 tRC=40
n_cmd=21936 n_nop=21727 n_act=8 n_pre=0 n_req=51 n_rd=200 n_write=1 bw_util=0.01833
n_activity=560 dram_eff=0.7179
bk0: 0a 21935i bk1: 0a 21936i bk2: 36a 21853i bk3: 36a 21795i bk4: 56a 21771i bk5: 56a 21672i bk6: 0a 21936i bk7: 0a 21937i bk8: 0a 21937i bk9: 4a 21917i bk10: 4a 21917i bk11: 4a 21916i bk12: 0a 21935i bk13: 0a 21935i bk14: 0a 21935i bk15: 4a 21910i 
dram_util_bins: 0 0 0 0 0 0 0 0 0 0
dram_eff_bins: 0 0 0 0 0 0 0 0 0 0
mrqq: max=12 avg=0.0938184
Memory Partition 7: 
Cache L2_bank_014:
MSHR contents

Cache L2_bank_015:
MSHR contents

In Dram Latency Queue (total = 0): 
DRAM[7]: 16 bks, busW=4 BL=8 CL=12, tRRD=2 tCCD=6, tRCD=12 tRAS=28 tRP=12 tRC=40
n_cmd=21936 n_nop=21743 n_act=5 n_pre=0 n_req=47 n_rd=188 n_write=0 bw_util=0.01714
n_activity=460 dram_eff=0.8174
bk0: 0a 21937i bk1: 0a 21938i bk2: 36a 21855i bk3: 36a 21791i bk4: 56a 21775i bk5: 56a 21686i bk6: 0a 21935i bk7: 0a 21935i bk8: 4a 21916i bk9: 0a 21934i bk10: 0a 21935i bk11: 0a 21935i bk12: 0a 21935i bk13: 0a 21935i bk14: 0a 21936i bk15: 0a 21936i 
dram_util_bins: 0 0 0 0 0 0 0 0 0 0
dram_eff_bins: 0 0 0 0 0 0 0 0 0 0
mrqq: max=10 avg=0.0804158
Memory Partition 8: 
Cache L2_bank_016:
MSHR contents

Cache L2_bank_017:
MSHR contents

In Dram Latency Queue (total = 0): 
DRAM[8]: 16 bks, busW=4 BL=8 CL=12, tRRD=2 tCCD=6, tRCD=12 tRAS=28 tRP=12 tRC=40
n_cmd=21936 n_nop=21736 n_act=6 n_pre=1 n_req=49 n_rd=192 n_write=1 bw_util=0.0176
n_activity=512 dram_eff=0.7539
bk0: 0a 21936i bk1: 0a 21939i bk2: 40a 21817i bk3: 36a 21798i bk4: 56a 21779i bk5: 56a 21681i bk6: 0a 21935i bk7: 0a 21936i bk8: 0a 21936i bk9: 0a 21936i bk10: 4a 21917i bk11: 0a 21935i bk12: 0a 21935i bk13: 0a 21935i bk14: 0a 21935i bk15: 0a 21935i 
dram_util_bins: 0 0 0 0 0 0 0 0 0 0
dram_eff_bins: 0 0 0 0 0 0 0 0 0 0
mrqq: max=11 avg=0.0723468
Memory Partition 9: 
Cache L2_bank_018:
MSHR contents

Cache L2_bank_019:
MSHR contents

In Dram Latency Queue (total = 0): 
DRAM[9]: 16 bks, busW=4 BL=8 CL=12, tRRD=2 tCCD=6, tRCD=12 tRAS=28 tRP=12 tRC=40
n_cmd=21936 n_nop=21743 n_act=5 n_pre=0 n_req=47 n_rd=188 n_write=0 bw_util=0.01714
n_activity=440 dram_eff=0.8545
bk0: 0a 21937i bk1: 0a 21938i bk2: 36a 21855i bk3: 36a 21797i bk4: 56a 21783i bk5: 56a 21677i bk6: 0a 21935i bk7: 0a 21935i bk8: 4a 21916i bk9: 0a 21934i bk10: 0a 21935i bk11: 0a 21935i bk12: 0a 21935i bk13: 0a 21935i bk14: 0a 21936i bk15: 0a 21936i 
dram_util_bins: 0 0 0 0 0 0 0 0 0 0
dram_eff_bins: 0 0 0 0 0 0 0 0 0 0
mrqq: max=10 avg=0.0826495
Memory Partition 10: 
Cache L2_bank_020:
MSHR contents

Cache L2_bank_021:
MSHR contents

In Dram Latency Queue (total = 0): 
DRAM[10]: 16 bks, busW=4 BL=8 CL=12, tRRD=2 tCCD=6, tRCD=12 tRAS=28 tRP=12 tRC=40
n_cmd=21936 n_nop=21730 n_act=7 n_pre=0 n_req=52 n_rd=196 n_write=3 bw_util=0.01814
n_activity=520 dram_eff=0.7654
bk0: 0a 21935i bk1: 0a 21937i bk2: 36a 21854i bk3: 36a 21800i bk4: 56a 21774i bk5: 56a 21674i bk6: 4a 21910i bk7: 0a 21935i bk8: 0a 21935i bk9: 0a 21935i bk10: 4a 21910i bk11: 0a 21934i bk12: 0a 21935i bk13: 0a 21936i bk14: 0a 21936i bk15: 4a 21910i 
dram_util_bins: 0 0 0 0 0 0 0 0 0 0
dram_eff_bins: 0 0 0 0 0 0 0 0 0 0
mrqq: max=11 avg=0.0825128

========= L2 cache stats =========
L2_cache_bank[0]: Access = 120, Miss = 24, Miss_rate = 0.200, Pending_hits = 96, Reservation_fails = 0
L2_cache_bank[1]: Access = 92, Miss = 23, Miss_rate = 0.250, Pending_hits = 69, Reservation_fails = 0
L2_cache_bank[2]: Access = 118, Miss = 25, Miss_rate = 0.212, Pending_hits = 69, Reservation_fails = 0
L2_cache_bank[3]: Access = 94, Miss = 25, Miss_rate = 0.266, Pending_hits = 69, Reservation_fails = 0
L2_cache_bank[4]: Access = 94, Miss = 25, Miss_rate = 0.266, Pending_hits = 69, Reservation_fails = 0
L2_cache_bank[5]: Access = 93, Miss = 24, Miss_rate = 0.258, Pending_hits = 69, Reservation_fails = 0
L2_cache_bank[6]: Access = 99, Miss = 26, Miss_rate = 0.263, Pending_hits = 72, Reservation_fails = 0
L2_cache_bank[7]: Access = 98, Miss = 26, Miss_rate = 0.265, Pending_hits = 72, Reservation_fails = 0
L2_cache_bank[8]: Access = 125, Miss = 26, Miss_rate = 0.208, Pending_hits = 99, Reservation_fails = 0
L2_cache_bank[9]: Access = 125, Miss = 26, Miss_rate = 0.208, Pending_hits = 99, Reservation_fails = 0
L2_cache_bank[10]: Access = 100, Miss = 28, Miss_rate = 0.280, Pending_hits = 72, Reservation_fails = 0
L2_cache_bank[11]: Access = 124, Miss = 25, Miss_rate = 0.202, Pending_hits = 99, Reservation_fails = 0
L2_cache_bank[12]: Access = 93, Miss = 24, Miss_rate = 0.258, Pending_hits = 69, Reservation_fails = 0
L2_cache_bank[13]: Access = 95, Miss = 26, Miss_rate = 0.274, Pending_hits = 69, Reservation_fails = 0
L2_cache_bank[14]: Access = 93, Miss = 24, Miss_rate = 0.258, Pending_hits = 69, Reservation_fails = 0
L2_cache_bank[15]: Access = 92, Miss = 23, Miss_rate = 0.250, Pending_hits = 69, Reservation_fails = 0
L2_cache_bank[16]: Access = 94, Miss = 25, Miss_rate = 0.266, Pending_hits = 69, Reservation_fails = 0
L2_cache_bank[17]: Access = 92, Miss = 23, Miss_rate = 0.250, Pending_hits = 69, Reservation_fails = 0
L2_cache_bank[18]: Access = 100, Miss = 24, Miss_rate = 0.240, Pending_hits = 69, Reservation_fails = 0
L2_cache_bank[19]: Access = 92, Miss = 23, Miss_rate = 0.250, Pending_hits = 69, Reservation_fails = 0
L2_cache_bank[20]: Access = 94, Miss = 25, Miss_rate = 0.266, Pending_hits = 69, Reservation_fails = 0
L2_cache_bank[21]: Access = 93, Miss = 24, Miss_rate = 0.258, Pending_hits = 69, Reservation_fails = 0
L2_total_cache_accesses = 2220
L2_total_cache_misses = 544
L2_total_cache_miss_rate = 0.2450
L2_total_cache_pending_hits = 1644
L2_total_cache_reservation_fails = 0
L2_total_cache_breakdown:
	L2_cache_stats_breakdown[GLOBAL_ACC_R][HIT] = 31
	L2_cache_stats_breakdown[GLOBAL_ACC_R][HIT_RESERVED] = 1536
	L2_cache_stats_breakdown[GLOBAL_ACC_R][MISS] = 523
	L2_cache_stats_breakdown[GLOBAL_ACC_R][RESERVATION_FAIL] = 0
	L2_cache_stats_breakdown[LOCAL_ACC_R][HIT] = 0
	L2_cache_stats_breakdown[LOCAL_ACC_R][HIT_RESERVED] = 0
	L2_cache_stats_breakdown[LOCAL_ACC_R][MISS] = 0
	L2_cache_stats_breakdown[LOCAL_ACC_R][RESERVATION_FAIL] = 0
	L2_cache_stats_breakdown[CONST_ACC_R][HIT] = 0
	L2_cache_stats_breakdown[CONST_ACC_R][HIT_RESERVED] = 27
	L2_cache_stats_breakdown[CONST_ACC_R][MISS] = 1
	L2_cache_stats_breakdown[CONST_ACC_R][RESERVATION_FAIL] = 0
	L2_cache_stats_breakdown[TEXTURE_ACC_R][HIT] = 0
	L2_cache_stats_breakdown[TEXTURE_ACC_R][HIT_RESERVED] = 0
	L2_cache_stats_breakdown[TEXTURE_ACC_R][MISS] = 0
	L2_cache_stats_breakdown[TEXTURE_ACC_R][RESERVATION_FAIL] = 0
	L2_cache_stats_breakdown[GLOBAL_ACC_W][HIT] = 1
	L2_cache_stats_breakdown[GLOBAL_ACC_W][HIT_RESERVED] = 0
	L2_cache_stats_breakdown[GLOBAL_ACC_W][MISS] = 16
	L2_cache_stats_breakdown[GLOBAL_ACC_W][RESERVATION_FAIL] = 0
	L2_cache_stats_breakdown[LOCAL_ACC_W][HIT] = 0
	L2_cache_stats_breakdown[LOCAL_ACC_W][HIT_RESERVED] = 0
	L2_cache_stats_breakdown[LOCAL_ACC_W][MISS] = 0
	L2_cache_stats_breakdown[LOCAL_ACC_W][RESERVATION_FAIL] = 0
	L2_cache_stats_breakdown[L1_WRBK_ACC][HIT] = 0
	L2_cache_stats_breakdown[L1_WRBK_ACC][HIT_RESERVED] = 0
	L2_cache_stats_breakdown[L1_WRBK_ACC][MISS] = 0
	L2_cache_stats_breakdown[L1_WRBK_ACC][RESERVATION_FAIL] = 0
	L2_cache_stats_breakdown[L2_WRBK_ACC][HIT] = 0
	L2_cache_stats_breakdown[L2_WRBK_ACC][HIT_RESERVED] = 0
	L2_cache_stats_breakdown[L2_WRBK_ACC][MISS] = 0
	L2_cache_stats_breakdown[L2_WRBK_ACC][RESERVATION_FAIL] = 0
	L2_cache_stats_breakdown[INST_ACC_R][HIT] = 0
	L2_cache_stats_breakdown[INST_ACC_R][HIT_RESERVED] = 81
	L2_cache_stats_breakdown[INST_ACC_R][MISS] = 4
	L2_cache_stats_breakdown[INST_ACC_R][RESERVATION_FAIL] = 0
	L2_cache_stats_breakdown[L1_WR_ALLOC_R][HIT] = 0
	L2_cache_stats_breakdown[L1_WR_ALLOC_R][HIT_RESERVED] = 0
	L2_cache_stats_breakdown[L1_WR_ALLOC_R][MISS] = 0
	L2_cache_stats_breakdown[L1_WR_ALLOC_R][RESERVATION_FAIL] = 0
	L2_cache_stats_breakdown[L2_WR_ALLOC_R][HIT] = 0
	L2_cache_stats_breakdown[L2_WR_ALLOC_R][HIT_RESERVED] = 0
	L2_cache_stats_breakdown[L2_WR_ALLOC_R][MISS] = 0
	L2_cache_stats_breakdown[L2_WR_ALLOC_R][RESERVATION_FAIL] = 0
	L2_cache_stats_breakdown[GLOBAL_ACC_R][TOTAL_ACCESS] = 2090
	L2_cache_stats_breakdown[CONST_ACC_R][TOTAL_ACCESS] = 28
	L2_cache_stats_breakdown[GLOBAL_ACC_W][TOTAL_ACCESS] = 17
	L2_cache_stats_breakdown[INST_ACC_R][TOTAL_ACCESS] = 85
L2_cache_data_port_util = 0.000
L2_cache_fill_port_util = 0.008

icnt_total_pkts_mem_to_simt=4706
icnt_total_pkts_simt_to_mem=2237
LD_mem_lat_dist  0 0 0 0 0 0 0 0 0 0 0 0 0 0 0 0 0 0 0 0 0 0 0 0 0 0 0
ST_mem_lat_dist  0 0 0 0 0 0 0 0 0 0 0 0 0 0 0 0 0 0 0 0 0 0 0 0 0 0 0
----------------------------Interconnect-DETAILS--------------------------------
Class 0:
Packet latency average = 27.9187
	minimum = 6
	maximum = 96
Network latency average = 19.0372
	minimum = 6
	maximum = 60
Slowest packet = 27
Flit latency average = 16.7965
	minimum = 6
	maximum = 60
Slowest flit = 27
Fragmentation average = 0
	minimum = 0
	maximum = 0
Injected packet rate average = 0.00375841
	minimum = 0.00287806 (at node 0)
	maximum = 0.00541753 (at node 1)
Accepted packet rate average = 0.00375841
	minimum = 0.00287806 (at node 0)
	maximum = 0.00541753 (at node 1)
Injected flit rate average = 0.00587717
	minimum = 0.00287806 (at node 0)
	maximum = 0.0141364 (at node 37)
Accepted flit rate average= 0.00587717
	minimum = 0.00389385 (at node 29)
	maximum = 0.0106658 (at node 1)
Injected packet length average = 1.56374
Accepted packet length average = 1.56374
Total in-flight flits = 0 (0 measured)
====== Overall Traffic Statistics ======
====== Traffic class 0 ======
Packet latency average = 27.9187 (1 samples)
	minimum = 6 (1 samples)
	maximum = 96 (1 samples)
Network latency average = 19.0372 (1 samples)
	minimum = 6 (1 samples)
	maximum = 60 (1 samples)
Flit latency average = 16.7965 (1 samples)
	minimum = 6 (1 samples)
	maximum = 60 (1 samples)
Fragmentation average = 0 (1 samples)
	minimum = 0 (1 samples)
	maximum = 0 (1 samples)
Injected packet rate average = 0.00375841 (1 samples)
	minimum = 0.00287806 (1 samples)
	maximum = 0.00541753 (1 samples)
Accepted packet rate average = 0.00375841 (1 samples)
	minimum = 0.00287806 (1 samples)
	maximum = 0.00541753 (1 samples)
Injected flit rate average = 0.00587717 (1 samples)
	minimum = 0.00287806 (1 samples)
	maximum = 0.0141364 (1 samples)
Accepted flit rate average = 0.00587717 (1 samples)
	minimum = 0.00389385 (1 samples)
	maximum = 0.0106658 (1 samples)
Injected packet size average = 1.56374 (1 samples)
Accepted packet size average = 1.56374 (1 samples)
Hops average = 1 (1 samples)
----------------------------END-of-Interconnect-DETAILS-------------------------


gpgpu_simulation_time = 0 days, 0 hrs, 0 min, 7 sec (7 sec)
gpgpu_simulation_rate = 177910 (inst/sec)
gpgpu_simulation_rate = 33459 (cycle/sec)

GPGPU-Sim PTX: cudaLaunch for 0x0x401649 (mode=performance simulation) on stream 0
GPGPU-Sim PTX: pushing kernel '_Z7Kernel2PbS_S_S_i' to stream 0, gridDim= (128,1,1) blockDim = (512,1,1) 
GPGPU-Sim uArch: Shader 18 bind to kernel 2 '_Z7Kernel2PbS_S_S_i'
GPGPU-Sim uArch: CTA/core = 4, limited by: threads
GPGPU-Sim uArch: Shader 19 bind to kernel 2 '_Z7Kernel2PbS_S_S_i'
GPGPU-Sim uArch: Shader 20 bind to kernel 2 '_Z7Kernel2PbS_S_S_i'
GPGPU-Sim uArch: Shader 21 bind to kernel 2 '_Z7Kernel2PbS_S_S_i'
GPGPU-Sim uArch: Shader 22 bind to kernel 2 '_Z7Kernel2PbS_S_S_i'
GPGPU-Sim uArch: Shader 23 bind to kernel 2 '_Z7Kernel2PbS_S_S_i'
GPGPU-Sim uArch: Shader 24 bind to kernel 2 '_Z7Kernel2PbS_S_S_i'
GPGPU-Sim uArch: Shader 25 bind to kernel 2 '_Z7Kernel2PbS_S_S_i'
GPGPU-Sim uArch: Shader 26 bind to kernel 2 '_Z7Kernel2PbS_S_S_i'
GPGPU-Sim uArch: Shader 27 bind to kernel 2 '_Z7Kernel2PbS_S_S_i'
GPGPU-Sim uArch: Shader 0 bind to kernel 2 '_Z7Kernel2PbS_S_S_i'
GPGPU-Sim uArch: Shader 1 bind to kernel 2 '_Z7Kernel2PbS_S_S_i'
GPGPU-Sim uArch: Shader 2 bind to kernel 2 '_Z7Kernel2PbS_S_S_i'
GPGPU-Sim uArch: Shader 3 bind to kernel 2 '_Z7Kernel2PbS_S_S_i'
GPGPU-Sim uArch: Shader 4 bind to kernel 2 '_Z7Kernel2PbS_S_S_i'
GPGPU-Sim uArch: Shader 5 bind to kernel 2 '_Z7Kernel2PbS_S_S_i'
GPGPU-Sim uArch: Shader 6 bind to kernel 2 '_Z7Kernel2PbS_S_S_i'
GPGPU-Sim uArch: Shader 7 bind to kernel 2 '_Z7Kernel2PbS_S_S_i'
GPGPU-Sim uArch: Shader 8 bind to kernel 2 '_Z7Kernel2PbS_S_S_i'
GPGPU-Sim uArch: Shader 9 bind to kernel 2 '_Z7Kernel2PbS_S_S_i'
GPGPU-Sim uArch: Shader 10 bind to kernel 2 '_Z7Kernel2PbS_S_S_i'
GPGPU-Sim uArch: Shader 11 bind to kernel 2 '_Z7Kernel2PbS_S_S_i'
GPGPU-Sim uArch: Shader 12 bind to kernel 2 '_Z7Kernel2PbS_S_S_i'
GPGPU-Sim uArch: Shader 13 bind to kernel 2 '_Z7Kernel2PbS_S_S_i'
GPGPU-Sim uArch: Shader 14 bind to kernel 2 '_Z7Kernel2PbS_S_S_i'
GPGPU-Sim uArch: Shader 15 bind to kernel 2 '_Z7Kernel2PbS_S_S_i'
GPGPU-Sim uArch: Shader 16 bind to kernel 2 '_Z7Kernel2PbS_S_S_i'
GPGPU-Sim uArch: Shader 17 bind to kernel 2 '_Z7Kernel2PbS_S_S_i'
Destroy streams for kernel 2: size 0
kernel_name = _Z7Kernel2PbS_S_S_i 
kernel_launch_uid = 2 
gpu_sim_cycle = 2094
gpu_sim_insn = 1114192
gpu_ipc =     532.0879
gpu_tot_sim_cycle = 458462
gpu_tot_sim_insn = 2359568
gpu_tot_ipc =       5.1467
gpu_tot_issued_cta = 256
max_total_param_size = 0
gpu_stall_dramfull = 66
gpu_stall_icnt2sh    = 7225
partiton_reqs_in_parallel = 46002
partiton_reqs_in_parallel_total    = 259908
partiton_level_parallism =      21.9685
partiton_level_parallism_total  =       0.6673
partiton_reqs_in_parallel_util = 46002
partiton_reqs_in_parallel_util_total    = 259908
gpu_sim_cycle_parition_util = 2094
gpu_tot_sim_cycle_parition_util    = 11814
partiton_level_parallism_util =      21.9685
partiton_level_parallism_util_total  =      21.9953
partiton_replys_in_parallel = 2136
partiton_replys_in_parallel_total    = 2220
L2_BW  =      96.6851 GB/Sec
L2_BW_total  =       0.9006 GB/Sec
gpu_total_sim_rate=196630

========= Core cache stats =========
L1I_cache:
	L1I_total_cache_accesses = 43152
	L1I_total_cache_misses = 5466
	L1I_total_cache_miss_rate = 0.1267
	L1I_total_cache_pending_hits = 0
	L1I_total_cache_reservation_fails = 15952
L1D_cache:
	L1D_cache_core[0]: Access = 0, Miss = 0, Miss_rate = -nan, Pending_hits = 0, Reservation_fails = 0
	L1D_cache_core[1]: Access = 0, Miss = 0, Miss_rate = -nan, Pending_hits = 0, Reservation_fails = 0
	L1D_cache_core[2]: Access = 0, Miss = 0, Miss_rate = -nan, Pending_hits = 0, Reservation_fails = 0
	L1D_cache_core[3]: Access = 0, Miss = 0, Miss_rate = -nan, Pending_hits = 0, Reservation_fails = 0
	L1D_cache_core[4]: Access = 0, Miss = 0, Miss_rate = -nan, Pending_hits = 0, Reservation_fails = 0
	L1D_cache_core[5]: Access = 0, Miss = 0, Miss_rate = -nan, Pending_hits = 0, Reservation_fails = 0
	L1D_cache_core[6]: Access = 0, Miss = 0, Miss_rate = -nan, Pending_hits = 0, Reservation_fails = 0
	L1D_cache_core[7]: Access = 0, Miss = 0, Miss_rate = -nan, Pending_hits = 0, Reservation_fails = 0
	L1D_cache_core[8]: Access = 0, Miss = 0, Miss_rate = -nan, Pending_hits = 0, Reservation_fails = 0
	L1D_cache_core[9]: Access = 0, Miss = 0, Miss_rate = -nan, Pending_hits = 0, Reservation_fails = 0
	L1D_cache_core[10]: Access = 0, Miss = 0, Miss_rate = -nan, Pending_hits = 0, Reservation_fails = 0
	L1D_cache_core[11]: Access = 0, Miss = 0, Miss_rate = -nan, Pending_hits = 0, Reservation_fails = 0
	L1D_cache_core[12]: Access = 0, Miss = 0, Miss_rate = -nan, Pending_hits = 0, Reservation_fails = 0
	L1D_cache_core[13]: Access = 0, Miss = 0, Miss_rate = -nan, Pending_hits = 0, Reservation_fails = 0
	L1D_cache_core[14]: Access = 0, Miss = 0, Miss_rate = -nan, Pending_hits = 0, Reservation_fails = 0
	L1D_cache_core[15]: Access = 0, Miss = 0, Miss_rate = -nan, Pending_hits = 0, Reservation_fails = 0
	L1D_cache_core[16]: Access = 0, Miss = 0, Miss_rate = -nan, Pending_hits = 0, Reservation_fails = 0
	L1D_cache_core[17]: Access = 0, Miss = 0, Miss_rate = -nan, Pending_hits = 0, Reservation_fails = 0
	L1D_cache_core[18]: Access = 0, Miss = 0, Miss_rate = -nan, Pending_hits = 0, Reservation_fails = 0
	L1D_cache_core[19]: Access = 0, Miss = 0, Miss_rate = -nan, Pending_hits = 0, Reservation_fails = 0
	L1D_cache_core[20]: Access = 0, Miss = 0, Miss_rate = -nan, Pending_hits = 0, Reservation_fails = 0
	L1D_cache_core[21]: Access = 0, Miss = 0, Miss_rate = -nan, Pending_hits = 0, Reservation_fails = 0
	L1D_cache_core[22]: Access = 0, Miss = 0, Miss_rate = -nan, Pending_hits = 0, Reservation_fails = 0
	L1D_cache_core[23]: Access = 0, Miss = 0, Miss_rate = -nan, Pending_hits = 0, Reservation_fails = 0
	L1D_cache_core[24]: Access = 0, Miss = 0, Miss_rate = -nan, Pending_hits = 0, Reservation_fails = 0
	L1D_cache_core[25]: Access = 0, Miss = 0, Miss_rate = -nan, Pending_hits = 0, Reservation_fails = 0
	L1D_cache_core[26]: Access = 0, Miss = 0, Miss_rate = -nan, Pending_hits = 0, Reservation_fails = 0
	L1D_cache_core[27]: Access = 0, Miss = 0, Miss_rate = -nan, Pending_hits = 0, Reservation_fails = 0
	L1D_total_cache_accesses = 0
	L1D_total_cache_misses = 0
	L1D_total_cache_pending_hits = 0
	L1D_total_cache_reservation_fails = 0
	L1D_cache_data_port_util = 0.000
	L1D_cache_fill_port_util = 0.000
L1C_cache:
	L1C_total_cache_accesses = 24576
	L1C_total_cache_misses = 1792
	L1C_total_cache_miss_rate = 0.0729
	L1C_total_cache_pending_hits = 0
	L1C_total_cache_reservation_fails = 4886
L1T_cache:
	L1T_total_cache_accesses = 0
	L1T_total_cache_misses = 0
	L1T_total_cache_pending_hits = 0
	L1T_total_cache_reservation_fails = 0

Total_core_cache_stats:
	Total_core_cache_stats_breakdown[GLOBAL_ACC_R][HIT] = 0
	Total_core_cache_stats_breakdown[GLOBAL_ACC_R][HIT_RESERVED] = 0
	Total_core_cache_stats_breakdown[GLOBAL_ACC_R][MISS] = 0
	Total_core_cache_stats_breakdown[GLOBAL_ACC_R][RESERVATION_FAIL] = 0
	Total_core_cache_stats_breakdown[LOCAL_ACC_R][HIT] = 0
	Total_core_cache_stats_breakdown[LOCAL_ACC_R][HIT_RESERVED] = 0
	Total_core_cache_stats_breakdown[LOCAL_ACC_R][MISS] = 0
	Total_core_cache_stats_breakdown[LOCAL_ACC_R][RESERVATION_FAIL] = 0
	Total_core_cache_stats_breakdown[CONST_ACC_R][HIT] = 22784
	Total_core_cache_stats_breakdown[CONST_ACC_R][HIT_RESERVED] = 0
	Total_core_cache_stats_breakdown[CONST_ACC_R][MISS] = 1792
	Total_core_cache_stats_breakdown[CONST_ACC_R][RESERVATION_FAIL] = 4886
	Total_core_cache_stats_breakdown[TEXTURE_ACC_R][HIT] = 0
	Total_core_cache_stats_breakdown[TEXTURE_ACC_R][HIT_RESERVED] = 0
	Total_core_cache_stats_breakdown[TEXTURE_ACC_R][MISS] = 0
	Total_core_cache_stats_breakdown[TEXTURE_ACC_R][RESERVATION_FAIL] = 0
	Total_core_cache_stats_breakdown[GLOBAL_ACC_W][HIT] = 0
	Total_core_cache_stats_breakdown[GLOBAL_ACC_W][HIT_RESERVED] = 0
	Total_core_cache_stats_breakdown[GLOBAL_ACC_W][MISS] = 0
	Total_core_cache_stats_breakdown[GLOBAL_ACC_W][RESERVATION_FAIL] = 0
	Total_core_cache_stats_breakdown[LOCAL_ACC_W][HIT] = 0
	Total_core_cache_stats_breakdown[LOCAL_ACC_W][HIT_RESERVED] = 0
	Total_core_cache_stats_breakdown[LOCAL_ACC_W][MISS] = 0
	Total_core_cache_stats_breakdown[LOCAL_ACC_W][RESERVATION_FAIL] = 0
	Total_core_cache_stats_breakdown[L1_WRBK_ACC][HIT] = 0
	Total_core_cache_stats_breakdown[L1_WRBK_ACC][HIT_RESERVED] = 0
	Total_core_cache_stats_breakdown[L1_WRBK_ACC][MISS] = 0
	Total_core_cache_stats_breakdown[L1_WRBK_ACC][RESERVATION_FAIL] = 0
	Total_core_cache_stats_breakdown[L2_WRBK_ACC][HIT] = 0
	Total_core_cache_stats_breakdown[L2_WRBK_ACC][HIT_RESERVED] = 0
	Total_core_cache_stats_breakdown[L2_WRBK_ACC][MISS] = 0
	Total_core_cache_stats_breakdown[L2_WRBK_ACC][RESERVATION_FAIL] = 0
	Total_core_cache_stats_breakdown[INST_ACC_R][HIT] = 37686
	Total_core_cache_stats_breakdown[INST_ACC_R][HIT_RESERVED] = 0
	Total_core_cache_stats_breakdown[INST_ACC_R][MISS] = 5466
	Total_core_cache_stats_breakdown[INST_ACC_R][RESERVATION_FAIL] = 15952
	Total_core_cache_stats_breakdown[L1_WR_ALLOC_R][HIT] = 0
	Total_core_cache_stats_breakdown[L1_WR_ALLOC_R][HIT_RESERVED] = 0
	Total_core_cache_stats_breakdown[L1_WR_ALLOC_R][MISS] = 0
	Total_core_cache_stats_breakdown[L1_WR_ALLOC_R][RESERVATION_FAIL] = 0
	Total_core_cache_stats_breakdown[L2_WR_ALLOC_R][HIT] = 0
	Total_core_cache_stats_breakdown[L2_WR_ALLOC_R][HIT_RESERVED] = 0
	Total_core_cache_stats_breakdown[L2_WR_ALLOC_R][MISS] = 0
	Total_core_cache_stats_breakdown[L2_WR_ALLOC_R][RESERVATION_FAIL] = 0
	Total_core_cache_stats_breakdown[CONST_ACC_R][TOTAL_ACCESS] = 24576
	Total_core_cache_stats_breakdown[INST_ACC_R][TOTAL_ACCESS] = 43152
Shader 0 warp_id issue ditsribution:
warp_id:
0, 1, 2, 3, 4, 5, 6, 7, 8, 9, 10, 11, 12, 13, 14, 15, 16, 17, 18, 19, 20, 21, 22, 23, 24, 25, 26, 27, 28, 29, 30, 31, 32, 33, 34, 35, 36, 37, 38, 39, 40, 41, 42, 43, 44, 45, 46, 47, 48, 49, 50, 51, 52, 53, 54, 55, 56, 57, 58, 59, 60, 61, 62, 63, 
distro:
44, 44, 43, 44, 43, 44, 43, 44, 44, 44, 44, 44, 44, 44, 44, 44, 44, 44, 44, 44, 44, 44, 44, 44, 44, 44, 44, 44, 44, 44, 44, 44, 44, 44, 44, 44, 44, 44, 44, 44, 44, 44, 44, 44, 44, 44, 44, 44, 44, 44, 44, 44, 44, 44, 44, 44, 44, 44, 44, 44, 44, 44, 44, 44, 
gpgpu_n_tot_thrd_icount = 2499680
gpgpu_n_tot_w_icount = 78115
gpgpu_n_stall_shd_mem = 5230
gpgpu_n_mem_read_local = 0
gpgpu_n_mem_write_local = 0
gpgpu_n_mem_read_global = 4138
gpgpu_n_mem_write_global = 49
gpgpu_n_mem_texture = 0
gpgpu_n_mem_const = 28
gpgpu_n_load_insn  = 131114
gpgpu_n_store_insn = 49
gpgpu_n_shmem_insn = 0
gpgpu_n_tex_insn = 0
gpgpu_n_const_mem_insn = 0
gpgpu_n_param_mem_insn = 786432
gpgpu_n_shmem_bkconflict = 0
gpgpu_n_cache_bkconflict = 0
gpgpu_n_intrawarp_mshr_merge = 0
gpgpu_n_cmem_portconflict = 4886
gpgpu_stall_shd_mem[c_mem][bk_conf] = 4886
gpgpu_stall_shd_mem[c_mem][mshr_rc] = 0
gpgpu_stall_shd_mem[c_mem][icnt_rc] = 0
gpgpu_stall_shd_mem[c_mem][data_port_stall] = 0
gpgpu_stall_shd_mem[t_mem][mshr_rc] = 0
gpgpu_stall_shd_mem[t_mem][icnt_rc] = 0
gpgpu_stall_shd_mem[t_mem][data_port_stall] = 0
gpgpu_stall_shd_mem[s_mem][bk_conf] = 0
gpgpu_stall_shd_mem[gl_mem][bk_conf] = 0
gpgpu_stall_shd_mem[gl_mem][coal_stall] = 7
gpgpu_stall_shd_mem[gl_mem][data_port_stall] = 0
gpgpu_stall_shd_mem[g_mem_ld][mshr_rc] = 0
gpgpu_stall_shd_mem[g_mem_ld][icnt_rc] = 337
gpgpu_stall_shd_mem[g_mem_ld][wb_icnt_rc] = 0
gpgpu_stall_shd_mem[g_mem_ld][wb_rsrv_fail] = 0
gpgpu_stall_shd_mem[g_mem_st][mshr_rc] = 0
gpgpu_stall_shd_mem[g_mem_st][icnt_rc] = 0
gpgpu_stall_shd_mem[g_mem_st][wb_icnt_rc] = 0
gpgpu_stall_shd_mem[g_mem_st][wb_rsrv_fail] = 0
gpgpu_stall_shd_mem[l_mem_ld][mshr_rc] = 0
gpgpu_stall_shd_mem[l_mem_ld][icnt_rc] = 0
gpgpu_stall_shd_mem[l_mem_ld][wb_icnt_rc] = 0
gpgpu_stall_shd_mem[l_mem_ld][wb_rsrv_fail] = 0
gpgpu_stall_shd_mem[l_mem_st][mshr_rc] = 0
gpgpu_stall_shd_mem[l_mem_st][icnt_rc] = 0
gpgpu_stall_shd_mem[l_mem_ld][wb_icnt_rc] = 0
gpgpu_stall_shd_mem[l_mem_ld][wb_rsrv_fail] = 0
gpu_reg_bank_conflict_stalls = 0
Warp Occupancy Distribution:
Stall:20326	W0_Idle:50513	W0_Scoreboard:101640	W1:291	W2:0	W3:0	W4:0	W5:0	W6:0	W7:0	W8:0	W9:0	W10:0	W11:0	W12:0	W13:0	W14:0	W15:0	W16:0	W17:0	W18:0	W19:0	W20:0	W21:0	W22:0	W23:0	W24:0	W25:0	W26:0	W27:0	W28:0	W29:0	W30:0	W31:0	W32:77824
traffic_breakdown_coretomem[CONST_ACC_R] = 224 {8:28,}
traffic_breakdown_coretomem[GLOBAL_ACC_R] = 33104 {8:4138,}
traffic_breakdown_coretomem[GLOBAL_ACC_W] = 1960 {40:49,}
traffic_breakdown_coretomem[INST_ACC_R] = 1128 {8:141,}
traffic_breakdown_memtocore[CONST_ACC_R] = 2016 {72:28,}
traffic_breakdown_memtocore[GLOBAL_ACC_R] = 165520 {40:4138,}
traffic_breakdown_memtocore[GLOBAL_ACC_W] = 392 {8:49,}
[...]
L2_cache_data_port_util = 0.249
L2_cache_fill_port_util = 0.012

icnt_total_pkts_mem_to_simt=2597859
icnt_total_pkts_simt_to_mem=1482717
LD_mem_lat_dist  0 0 0 0 0 0 0 0 0 0 0 0 0 0 0 0 0 0 0 0 0 0 0 0 0 0 0
ST_mem_lat_dist  0 0 0 0 0 0 0 0 0 0 0 0 0 0 0 0 0 0 0 0 0 0 0 0 0 0 0
----------------------------Interconnect-DETAILS--------------------------------
Class 0:
Packet latency average = 8.56519
	minimum = 6
	maximum = 31
Network latency average = 8.46582
	minimum = 6
	maximum = 30
Slowest packet = 2371388
Flit latency average = 8.13542
	minimum = 6
	maximum = 30
Slowest flit = 4076153
Fragmentation average = 0
	minimum = 0
	maximum = 0
Injected packet rate average = 0.0421833
	minimum = 0.0329557 (at node 1)
	maximum = 0.0494336 (at node 40)
Accepted packet rate average = 0.0421833
	minimum = 0.0329557 (at node 1)
	maximum = 0.0494336 (at node 40)
Injected flit rate average = 0.063275
	minimum = 0.0329557 (at node 1)
	maximum = 0.0988671 (at node 40)
Accepted flit rate average= 0.063275
	minimum = 0.0473738 (at node 28)
	maximum = 0.0823893 (at node 0)
Injected packet length average = 1.5
Accepted packet length average = 1.5
Total in-flight flits = 0 (0 measured)
====== Overall Traffic Statistics ======
====== Traffic class 0 ======
Packet latency average = 36.2305 (20 samples)
	minimum = 6 (20 samples)
	maximum = 324.9 (20 samples)
Network latency average = 21.8842 (20 samples)
	minimum = 6 (20 samples)
	maximum = 251.45 (20 samples)
Flit latency average = 22.4716 (20 samples)
	minimum = 6 (20 samples)
	maximum = 250.65 (20 samples)
Fragmentation average = 0.00752319 (20 samples)
	minimum = 0 (20 samples)
	maximum = 83.1 (20 samples)
Injected packet rate average = 0.0462625 (20 samples)
	minimum = 0.0340882 (20 samples)
	maximum = 0.112732 (20 samples)
Accepted packet rate average = 0.0462625 (20 samples)
	minimum = 0.0340882 (20 samples)
	maximum = 0.112732 (20 samples)
Injected flit rate average = 0.0738525 (20 samples)
	minimum = 0.0424807 (20 samples)
	maximum = 0.162448 (20 samples)
Accepted flit rate average = 0.0738525 (20 samples)
	minimum = 0.0540184 (20 samples)
	maximum = 0.215815 (20 samples)
Injected packet size average = 1.59638 (20 samples)
Accepted packet size average = 1.59638 (20 samples)
Hops average = 1 (20 samples)
----------------------------END-of-Interconnect-DETAILS-------------------------


gpgpu_simulation_time = 0 days, 0 hrs, 17 min, 5 sec (1025 sec)
gpgpu_simulation_rate = 30780 (inst/sec)
gpgpu_simulation_rate = 4635 (cycle/sec)
Kernel Executed 10 times
Result stored in result.txt
========================================UVM statistics==============================
========================================TLB statistics(access)==============================
Shader0: Tlb_access: 44708 Tlb_hit: 42967 Tlb_miss: 1741 Tlb_hit_rate: 0.961058
Shader1: Tlb_access: 45058 Tlb_hit: 43437 Tlb_miss: 1621 Tlb_hit_rate: 0.964024
Shader2: Tlb_access: 42109 Tlb_hit: 40557 Tlb_miss: 1552 Tlb_hit_rate: 0.963143
Shader3: Tlb_access: 46680 Tlb_hit: 44836 Tlb_miss: 1844 Tlb_hit_rate: 0.960497
Shader4: Tlb_access: 46092 Tlb_hit: 44284 Tlb_miss: 1808 Tlb_hit_rate: 0.960774
Shader5: Tlb_access: 39001 Tlb_hit: 37402 Tlb_miss: 1599 Tlb_hit_rate: 0.959001
Shader6: Tlb_access: 37432 Tlb_hit: 35769 Tlb_miss: 1663 Tlb_hit_rate: 0.955573
Shader7: Tlb_access: 41934 Tlb_hit: 40249 Tlb_miss: 1685 Tlb_hit_rate: 0.959818
Shader8: Tlb_access: 38496 Tlb_hit: 36854 Tlb_miss: 1642 Tlb_hit_rate: 0.957346
Shader9: Tlb_access: 41547 Tlb_hit: 39858 Tlb_miss: 1689 Tlb_hit_rate: 0.959347
Shader10: Tlb_access: 43012 Tlb_hit: 41278 Tlb_miss: 1734 Tlb_hit_rate: 0.959686
Shader11: Tlb_access: 45126 Tlb_hit: 43347 Tlb_miss: 1779 Tlb_hit_rate: 0.960577
Shader12: Tlb_access: 42759 Tlb_hit: 41038 Tlb_miss: 1721 Tlb_hit_rate: 0.959751
Shader13: Tlb_access: 41927 Tlb_hit: 40241 Tlb_miss: 1686 Tlb_hit_rate: 0.959787
Shader14: Tlb_access: 43786 Tlb_hit: 42034 Tlb_miss: 1752 Tlb_hit_rate: 0.959987
Shader15: Tlb_access: 43887 Tlb_hit: 42168 Tlb_miss: 1719 Tlb_hit_rate: 0.960831
Shader16: Tlb_access: 41195 Tlb_hit: 39572 Tlb_miss: 1623 Tlb_hit_rate: 0.960602
Shader17: Tlb_access: 39633 Tlb_hit: 37957 Tlb_miss: 1676 Tlb_hit_rate: 0.957712
Shader18: Tlb_access: 38677 Tlb_hit: 36990 Tlb_miss: 1687 Tlb_hit_rate: 0.956382
Shader19: Tlb_access: 41715 Tlb_hit: 40032 Tlb_miss: 1683 Tlb_hit_rate: 0.959655
Shader20: Tlb_access: 39730 Tlb_hit: 38080 Tlb_miss: 1650 Tlb_hit_rate: 0.958470
Shader21: Tlb_access: 43333 Tlb_hit: 41537 Tlb_miss: 1796 Tlb_hit_rate: 0.958554
Shader22: Tlb_access: 42891 Tlb_hit: 41251 Tlb_miss: 1640 Tlb_hit_rate: 0.961764
Shader23: Tlb_access: 40995 Tlb_hit: 39325 Tlb_miss: 1670 Tlb_hit_rate: 0.959263
Shader24: Tlb_access: 39650 Tlb_hit: 38075 Tlb_miss: 1575 Tlb_hit_rate: 0.960277
Shader25: Tlb_access: 38457 Tlb_hit: 36870 Tlb_miss: 1587 Tlb_hit_rate: 0.958733
Shader26: Tlb_access: 44376 Tlb_hit: 42582 Tlb_miss: 1794 Tlb_hit_rate: 0.959573
Shader27: Tlb_access: 44521 Tlb_hit: 42808 Tlb_miss: 1713 Tlb_hit_rate: 0.961524
Tlb_tot_access: 1178727 Tlb_tot_hit: 1131398, Tlb_tot_miss: 47329, Tlb_tot_hit_rate: 0.959847
========================================TLB statistics(validate)==============================
Shader0: Tlb_validate: 231 Tlb_invalidate: 112 Tlb_evict: 0 Tlb_page_evict: 112
Shader1: Tlb_validate: 227 Tlb_invalidate: 112 Tlb_evict: 0 Tlb_page_evict: 112
Shader2: Tlb_validate: 232 Tlb_invalidate: 112 Tlb_evict: 0 Tlb_page_evict: 112
Shader3: Tlb_validate: 241 Tlb_invalidate: 112 Tlb_evict: 0 Tlb_page_evict: 112
Shader4: Tlb_validate: 239 Tlb_invalidate: 112 Tlb_evict: 0 Tlb_page_evict: 112
Shader5: Tlb_validate: 223 Tlb_invalidate: 112 Tlb_evict: 0 Tlb_page_evict: 112
Shader6: Tlb_validate: 215 Tlb_invalidate: 112 Tlb_evict: 0 Tlb_page_evict: 112
Shader7: Tlb_validate: 226 Tlb_invalidate: 112 Tlb_evict: 0 Tlb_page_evict: 112
Shader8: Tlb_validate: 219 Tlb_invalidate: 112 Tlb_evict: 0 Tlb_page_evict: 112
Shader9: Tlb_validate: 229 Tlb_invalidate: 112 Tlb_evict: 0 Tlb_page_evict: 112
Shader10: Tlb_validate: 226 Tlb_invalidate: 112 Tlb_evict: 0 Tlb_page_evict: 112
Shader11: Tlb_validate: 233 Tlb_invalidate: 112 Tlb_evict: 0 Tlb_page_evict: 112
Shader12: Tlb_validate: 243 Tlb_invalidate: 112 Tlb_evict: 0 Tlb_page_evict: 112
Shader13: Tlb_validate: 229 Tlb_invalidate: 112 Tlb_evict: 0 Tlb_page_evict: 112
Shader14: Tlb_validate: 233 Tlb_invalidate: 112 Tlb_evict: 0 Tlb_page_evict: 112
Shader15: Tlb_validate: 223 Tlb_invalidate: 112 Tlb_evict: 0 Tlb_page_evict: 112
Shader16: Tlb_validate: 222 Tlb_invalidate: 112 Tlb_evict: 0 Tlb_page_evict: 112
Shader17: Tlb_validate: 228 Tlb_invalidate: 112 Tlb_evict: 0 Tlb_page_evict: 112
Shader18: Tlb_validate: 240 Tlb_invalidate: 112 Tlb_evict: 0 Tlb_page_evict: 112
Shader19: Tlb_validate: 240 Tlb_invalidate: 112 Tlb_evict: 0 Tlb_page_evict: 112
Shader20: Tlb_validate: 224 Tlb_invalidate: 112 Tlb_evict: 0 Tlb_page_evict: 112
Shader21: Tlb_validate: 233 Tlb_invalidate: 112 Tlb_evict: 0 Tlb_page_evict: 112
Shader22: Tlb_validate: 235 Tlb_invalidate: 112 Tlb_evict: 0 Tlb_page_evict: 112
Shader23: Tlb_validate: 229 Tlb_invalidate: 111 Tlb_evict: 0 Tlb_page_evict: 111
Shader24: Tlb_validate: 228 Tlb_invalidate: 112 Tlb_evict: 0 Tlb_page_evict: 112
Shader25: Tlb_validate: 228 Tlb_invalidate: 112 Tlb_evict: 0 Tlb_page_evict: 112
Shader26: Tlb_validate: 239 Tlb_invalidate: 112 Tlb_evict: 0 Tlb_page_evict: 112
Shader27: Tlb_validate: 240 Tlb_invalidate: 112 Tlb_evict: 0 Tlb_page_evict: 112
Tlb_tot_valiate: 6455 Tlb_invalidate: 3135, Tlb_tot_evict: 0, Tlb_tot_evict page: 3135
========================================TLB statistics(threshing)==============================
Shader0: Total 0
Shader1: Total 0
Shader2: Total 0
Shader3: Total 0
Shader4: Total 0
Shader5: Total 0
Shader6: Total 0
Shader7: Total 0
Shader8: Total 0
Shader9: Total 0
Shader10: Total 0
Shader11: Total 0
Shader12: Total 0
Shader13: Total 0
Shader14: Total 0
Shader15: Total 0
Shader16: Total 0
Shader17: Total 0
Shader18: Total 0
Shader19: Total 0
Shader20: Total 0
Shader21: Total 0
Shader22: Total 0
Shader23: Total 0
Shader24: Total 0
Shader25: Total 0
Shader26: Total 0
Shader27: Total 0
Tlb_tot_thresh: 0
========================================Page fault statistics==============================
Shader0: Page_table_access:1741 Page_hit: 1675 Page_miss: 66 Page_hit_rate: 0.962091 Page_fault: 1 Page_pending: 65
Shader1: Page_table_access:1621 Page_hit: 1544 Page_miss: 77 Page_hit_rate: 0.952498 Page_fault: 7 Page_pending: 70
Shader2: Page_table_access:1552 Page_hit: 1486 Page_miss: 66 Page_hit_rate: 0.957474 Page_fault: 1 Page_pending: 64
Shader3: Page_table_access:1844 Page_hit: 1780 Page_miss: 64 Page_hit_rate: 0.965293 Page_fault: 0 Page_pending: 64
Shader4: Page_table_access:1808 Page_hit: 1744 Page_miss: 64 Page_hit_rate: 0.964602 Page_fault: 0 Page_pending: 64
Shader5: Page_table_access:1599 Page_hit: 1535 Page_miss: 64 Page_hit_rate: 0.959975 Page_fault: 0 Page_pending: 64
Shader6: Page_table_access:1663 Page_hit: 1599 Page_miss: 64 Page_hit_rate: 0.961515 Page_fault: 0 Page_pending: 64
Shader7: Page_table_access:1685 Page_hit: 1621 Page_miss: 64 Page_hit_rate: 0.962018 Page_fault: 0 Page_pending: 64
Shader8: Page_table_access:1642 Page_hit: 1576 Page_miss: 66 Page_hit_rate: 0.959805 Page_fault: 1 Page_pending: 65
Shader9: Page_table_access:1689 Page_hit: 1625 Page_miss: 64 Page_hit_rate: 0.962108 Page_fault: 0 Page_pending: 64
Shader10: Page_table_access:1734 Page_hit: 1670 Page_miss: 64 Page_hit_rate: 0.963091 Page_fault: 0 Page_pending: 64
Shader11: Page_table_access:1779 Page_hit: 1715 Page_miss: 64 Page_hit_rate: 0.964025 Page_fault: 0 Page_pending: 64
Shader12: Page_table_access:1721 Page_hit: 1657 Page_miss: 64 Page_hit_rate: 0.962812 Page_fault: 0 Page_pending: 64
Shader13: Page_table_access:1686 Page_hit: 1622 Page_miss: 64 Page_hit_rate: 0.962040 Page_fault: 0 Page_pending: 64
Shader14: Page_table_access:1752 Page_hit: 1688 Page_miss: 64 Page_hit_rate: 0.963470 Page_fault: 0 Page_pending: 64
Shader15: Page_table_access:1719 Page_hit: 1655 Page_miss: 64 Page_hit_rate: 0.962769 Page_fault: 0 Page_pending: 64
Shader16: Page_table_access:1623 Page_hit: 1559 Page_miss: 64 Page_hit_rate: 0.960567 Page_fault: 0 Page_pending: 64
Shader17: Page_table_access:1676 Page_hit: 1612 Page_miss: 64 Page_hit_rate: 0.961814 Page_fault: 0 Page_pending: 64
Shader18: Page_table_access:1687 Page_hit: 1623 Page_miss: 64 Page_hit_rate: 0.962063 Page_fault: 0 Page_pending: 64
Shader19: Page_table_access:1683 Page_hit: 1617 Page_miss: 66 Page_hit_rate: 0.960784 Page_fault: 1 Page_pending: 65
Shader20: Page_table_access:1650 Page_hit: 1586 Page_miss: 64 Page_hit_rate: 0.961212 Page_fault: 0 Page_pending: 64
Shader21: Page_table_access:1796 Page_hit: 1732 Page_miss: 64 Page_hit_rate: 0.964365 Page_fault: 0 Page_pending: 64
Shader22: Page_table_access:1640 Page_hit: 1574 Page_miss: 66 Page_hit_rate: 0.959756 Page_fault: 2 Page_pending: 64
Shader23: Page_table_access:1670 Page_hit: 1606 Page_miss: 64 Page_hit_rate: 0.961677 Page_fault: 0 Page_pending: 64
Shader24: Page_table_access:1575 Page_hit: 1509 Page_miss: 66 Page_hit_rate: 0.958095 Page_fault: 2 Page_pending: 64
Shader25: Page_table_access:1587 Page_hit: 1523 Page_miss: 64 Page_hit_rate: 0.959672 Page_fault: 0 Page_pending: 64
Shader26: Page_table_access:1794 Page_hit: 1730 Page_miss: 64 Page_hit_rate: 0.964326 Page_fault: 0 Page_pending: 64
Shader27: Page_table_access:1713 Page_hit: 1647 Page_miss: 66 Page_hit_rate: 0.961471 Page_fault: 1 Page_pending: 66
Page_talbe_tot_access: 47329 Page_tot_hit: 45510, Page_tot_miss 1819, Page_tot_hit_rate: 0.961567 Page_tot_fault: 16 Page_tot_pending: 1803
Total_memory_access_page_fault: 16, Average_latency: 458653.187500
========================================Page threshing statistics==============================
Page_validate: 752 Page_evict_diry: 0 Page_evict_not_diry: 0
Page_tot_thresh: 0
========================================Memory access statistics==============================
========================================Prefetch statistics==============================
Tot_page_hit: 0, Tot_page_miss: 0, Tot_page_fault: 0
Avg_page_latency: 0.000000, Avg_prefetch_size: -nan, Avg_prefetch_latency: 0.000000
========================================Rdma statistics==============================
Rdma_read: 0
Rdma_migration_read 0
Rdma_migration_write 0
========================================PCI-e statistics==============================
Pcie_read_utilization: 6.615225
[0-25]: 0.000000, [26-50]: 0.000000, [51-75]: 0.000000, [76-100]: 1.000000
Pcie_write_utilization: 0.000000
[0-25]: -nan, [26-50]: -nan, [51-75]: -nan, [76-100]: -nan
F:        0----T:      253 	 St: 80000000 Sz: 1 	 Sm: 0 	 T: memcpy_h2d(0.170831)
F:   222404----T:   234218 	 	 	 Kl: 1 	 Sm: 0 	 T: kernel_launch(7.977043)
F:   223327----T:   223670 	 St: c0080000 Sz: 16384 	 Sm: 0 	 T: memcpy_h2d(0.231600)
F:   223670----T:   224356 	 St: c0084000 Sz: 49152 	 Sm: 0 	 T: memcpy_h2d(0.463201)
F:   224356----T:   224616 	 St: c0000000 Sz: 4096 	 Sm: 0 	 T: memcpy_h2d(0.175557)
F:   224616----T:   225440 	 St: c0001000 Sz: 61440 	 Sm: 0 	 T: memcpy_h2d(0.556381)
F:   225440----T:   225700 	 St: c00b0000 Sz: 4096 	 Sm: 0 	 T: memcpy_h2d(0.175557)
F:   225700----T:   226524 	 St: c00b1000 Sz: 61440 	 Sm: 0 	 T: memcpy_h2d(0.556381)
F:   226524----T:   226867 	 St: c00a0000 Sz: 16384 	 Sm: 0 	 T: memcpy_h2d(0.231600)
F:   226867----T:   227553 	 St: c00a4000 Sz: 49152 	 Sm: 0 	 T: memcpy_h2d(0.463201)
F:   227553----T:   227813 	 St: c02b0000 Sz: 4096 	 Sm: 0 	 T: memcpy_h2d(0.175557)
F:   227813----T:   228637 	 St: c02b1000 Sz: 61440 	 Sm: 0 	 T: memcpy_h2d(0.556381)
F:   228637----T:   228980 	 St: c0090000 Sz: 16384 	 Sm: 0 	 T: memcpy_h2d(0.231600)
F:   228980----T:   229666 	 St: c0094000 Sz: 49152 	 Sm: 0 	 T: memcpy_h2d(0.463201)
F:   229666----T:   230490 	 St: c02e0000 Sz: 61440 	 Sm: 0 	 T: memcpy_h2d(0.556381)
F:   230490----T:   230750 	 St: c02ef000 Sz: 4096 	 Sm: 0 	 T: memcpy_h2d(0.175557)
F:   231615----T:   232531 	 St: c02c0000 Sz: 69632 	 Sm: 0 	 T: memcpy_h2d(0.618501)
F:   232531----T:   233355 	 St: c02d1000 Sz: 61440 	 Sm: 0 	 T: memcpy_h2d(0.556381)
F:   456368----T:   458462 	 	 	 Kl: 2 	 Sm: 0 	 T: kernel_launch(1.413910)
F:   458462----T:   458715 	 St: 80000000 Sz: 1 	 Sm: 0 	 T: memcpy_d2h(0.170831)
F:   458716----T:   458969 	 St: 80000000 Sz: 1 	 Sm: 0 	 T: memcpy_h2d(0.170831)
F:   681120----T:   719336 	 	 	 Kl: 3 	 Sm: 0 	 T: kernel_launch(25.804186)
F:   681755----T:   682136 	 St: c0010000 Sz: 20480 	 Sm: 0 	 T: memcpy_h2d(0.257259)
F:   682136----T:   682777 	 St: c0015000 Sz: 45056 	 Sm: 0 	 T: memcpy_h2d(0.432816)
F:   682777----T:   683328 	 St: c0020000 Sz: 36864 	 Sm: 0 	 T: memcpy_h2d(0.372046)
F:   683328----T:   684523 	 St: c0029000 Sz: 94208 	 Sm: 0 	 T: memcpy_h2d(0.806887)
F:   684523----T:   684987 	 St: c0040000 Sz: 28672 	 Sm: 0 	 T: memcpy_h2d(0.313302)
F:   684987----T:   687777 	 St: c0047000 Sz: 233472 	 Sm: 0 	 T: memcpy_h2d(1.883862)
F:   687777----T:   688555 	 St: c00e0000 Sz: 57344 	 Sm: 0 	 T: memcpy_h2d(0.525321)
F:   688555----T:   688835 	 St: c00ee000 Sz: 8192 	 Sm: 0 	 T: memcpy_h2d(0.189061)
F:   688835----T:   689705 	 St: c00f0000 Sz: 65536 	 Sm: 0 	 T: memcpy_h2d(0.587441)
F:   689705----T:   690575 	 St: c0100000 Sz: 65536 	 Sm: 0 	 T: memcpy_h2d(0.587441)
F:   690575----T:   691171 	 St: c0120000 Sz: 40960 	 Sm: 0 	 T: memcpy_h2d(0.402431)
F:   691171----T:   693820 	 St: c012a000 Sz: 221184 	 Sm: 0 	 T: memcpy_h2d(1.788656)
F:   693820----T:   694163 	 St: c0180000 Sz: 16384 	 Sm: 0 	 T: memcpy_h2d(0.231600)
F:   694163----T:   700105 	 St: c0184000 Sz: 507904 	 Sm: 0 	 T: memcpy_h2d(4.012154)
F:   700105----T:   701721 	 St: c00c0000 Sz: 131072 	 Sm: 0 	 T: memcpy_h2d(1.091155)
F:   701721----T:   702591 	 St: c0110000 Sz: 65536 	 Sm: 0 	 T: memcpy_h2d(0.587441)
F:   702591----T:   703739 	 St: c0160000 Sz: 90112 	 Sm: 0 	 T: memcpy_h2d(0.775152)
F:   703739----T:   704335 	 St: c0176000 Sz: 40960 	 Sm: 0 	 T: memcpy_h2d(0.402431)
F:   704335----T:   712725 	 St: c0200000 Sz: 720896 	 Sm: 0 	 T: memcpy_h2d(5.665091)
F:   941486----T:   942815 	 	 	 Kl: 4 	 Sm: 0 	 T: kernel_launch(0.897367)
F:   942815----T:   943068 	 St: 80000000 Sz: 1 	 Sm: 0 	 T: memcpy_d2h(0.170831)
F:   943069----T:   943322 	 St: 80000000 Sz: 1 	 Sm: 0 	 T: memcpy_h2d(0.170831)
F:  1165473----T:  1177257 	 	 	 Kl: 5 	 Sm: 0 	 T: kernel_launch(7.956786)
F:  1399407----T:  1400817 	 	 	 Kl: 6 	 Sm: 0 	 T: kernel_launch(0.952059)
F:  1400817----T:  1401070 	 St: 80000000 Sz: 1 	 Sm: 0 	 T: memcpy_d2h(0.170831)
F:  1401071----T:  1401324 	 St: 80000000 Sz: 1 	 Sm: 0 	 T: memcpy_h2d(0.170831)
F:  1623475----T:  1635176 	 	 	 Kl: 7 	 Sm: 0 	 T: kernel_launch(7.900743)
F:  1857326----T:  1860245 	 	 	 Kl: 8 	 Sm: 0 	 T: kernel_launch(1.970966)
F:  1860245----T:  1860498 	 St: 80000000 Sz: 1 	 Sm: 0 	 T: memcpy_d2h(0.170831)
F:  1860499----T:  1860752 	 St: 80000000 Sz: 1 	 Sm: 0 	 T: memcpy_h2d(0.170831)
F:  2082903----T:  2103441 	 	 	 Kl: 9 	 Sm: 0 	 T: kernel_launch(13.867657)
F:  2325591----T:  2329881 	 	 	 Kl: 10 	 Sm: 0 	 T: kernel_launch(2.896691)
F:  2329881----T:  2330134 	 St: 80000000 Sz: 1 	 Sm: 0 	 T: memcpy_d2h(0.170831)
F:  2330135----T:  2330388 	 St: 80000000 Sz: 1 	 Sm: 0 	 T: memcpy_h2d(0.170831)
F:  2552539----T:  2607697 	 	 	 Kl: 11 	 Sm: 0 	 T: kernel_launch(37.243755)
F:  2829847----T:  2834056 	 	 	 Kl: 12 	 Sm: 0 	 T: kernel_launch(2.841999)
F:  2834056----T:  2834309 	 St: 80000000 Sz: 1 	 Sm: 0 	 T: memcpy_d2h(0.170831)
F:  2834310----T:  2834563 	 St: 80000000 Sz: 1 	 Sm: 0 	 T: memcpy_h2d(0.170831)
F:  3056714----T:  3144880 	 	 	 Kl: 13 	 Sm: 0 	 T: kernel_launch(59.531399)
F:  3367030----T:  3371358 	 	 	 Kl: 14 	 Sm: 0 	 T: kernel_launch(2.922350)
F:  3371358----T:  3371611 	 St: 80000000 Sz: 1 	 Sm: 0 	 T: memcpy_d2h(0.170831)
F:  3371612----T:  3371865 	 St: 80000000 Sz: 1 	 Sm: 0 	 T: memcpy_h2d(0.170831)
F:  3594016----T:  3628244 	 	 	 Kl: 15 	 Sm: 0 	 T: kernel_launch(23.111412)
F:  3850394----T:  3852462 	 	 	 Kl: 16 	 Sm: 0 	 T: kernel_launch(1.396354)
F:  3852462----T:  3852715 	 St: 80000000 Sz: 1 	 Sm: 0 	 T: memcpy_d2h(0.170831)
F:  3852715----T:  3852968 	 St: 80000000 Sz: 1 	 Sm: 0 	 T: memcpy_h2d(0.170831)
F:  4075119----T:  4080454 	 	 	 Kl: 17 	 Sm: 0 	 T: kernel_launch(3.602296)
F:  4302604----T:  4303706 	 	 	 Kl: 18 	 Sm: 0 	 T: kernel_launch(0.744092)
F:  4303706----T:  4303959 	 St: 80000000 Sz: 1 	 Sm: 0 	 T: memcpy_d2h(0.170831)
F:  4303960----T:  4304213 	 St: 80000000 Sz: 1 	 Sm: 0 	 T: memcpy_h2d(0.170831)
F:  4526364----T:  4528580 	 	 	 Kl: 19 	 Sm: 0 	 T: kernel_launch(1.496286)
F:  4750730----T:  4751702 	 	 	 Kl: 20 	 Sm: 0 	 T: kernel_launch(0.656313)
F:  4751702----T:  4751955 	 St: 80000000 Sz: 1 	 Sm: 0 	 T: memcpy_d2h(0.170831)
F:  4751956----T:  4752216 	 St: 0 Sz: 4096 	 Sm: 0 	 T: device_sync(0.175557)
F:  4751956----T:  4752780 	 St: 0 Sz: 61440 	 Sm: 0 	 T: device_sync(0.556381)
F:  4753040----T:  4753300 	 St: 0 Sz: 4096 	 Sm: 0 	 T: device_sync(0.175557)
F:  4753040----T:  4753864 	 St: 0 Sz: 61440 	 Sm: 0 	 T: device_sync(0.556381)
F:  4754124----T:  4754384 	 St: 0 Sz: 4096 	 Sm: 0 	 T: device_sync(0.175557)
F:  4754124----T:  4755693 	 St: 0 Sz: 126976 	 Sm: 0 	 T: device_sync(1.059419)
F:  4755953----T:  4756213 	 St: 0 Sz: 4096 	 Sm: 0 	 T: device_sync(0.175557)
F:  4755953----T:  4758273 	 St: 0 Sz: 192512 	 Sm: 0 	 T: device_sync(1.566509)
Tot_prefetch_time: 0(cycle), 0.000000(us)
Tot_kernel_exec_time: 303877(cycle), 205.183655(us)
Tot_kernel_exec_time_and_fault_time: 1370197(cycle), 925.183655(us)
Tot_memcpy_h2d_time: 42663(cycle), 28.806887(us)
Tot_memcpy_d2h_time: 2530(cycle), 1.708305(us)
Tot_memcpy_time: 45193(cycle), 30.515192(us)
Tot_devicesync_time: 6577(cycle), 4.440918(us)
Tot_writeback_time: 0(cycle), 0.000000(us)
Tot_rdma_time: 0(cycle), 0.000000(us)
Tot_memcpy_d2h_sync_wb_time: 9107(cycle), 6.149223(us)
GPGPU-Sim: *** exit detected ***
