

        *** GPGPU-Sim Simulator Version 3.2.2  [build gpgpu-sim_git-commit-192e696560217fbde0ca32c0b7f1cb04a8d61fd3_modified_1] ***


GPGPU-Sim PTX: simulation mode 0 (can change with PTX_SIM_MODE_FUNC environment variable:
               1=functional simulation only, 0=detailed performance simulator)
GPGPU-Sim: Configuration options:

-network_mode                           1 # Interconnection network mode
-inter_config_file   config_fermi_islip.icnt # Interconnection network config file
-gpgpu_ptx_use_cuobjdump                    1 # Use cuobjdump to extract ptx and sass from binaries
-gpgpu_experimental_lib_support                    0 # Try to extract code from cuda libraries [Broken because of unknown cudaGetExportTable]
-gpgpu_ptx_convert_to_ptxplus                    0 # Convert SASS (native ISA) to ptxplus and run ptxplus
-gpgpu_ptx_force_max_capability                   20 # Force maximum compute capability
-gpgpu_ptx_inst_debug_to_file                    0 # Dump executed instructions' debug information to file
-gpgpu_ptx_inst_debug_file       inst_debug.txt # Executed instructions' debug output file
-gpgpu_ptx_inst_debug_thread_uid                    1 # Thread UID for executed instructions' debug output
-gpgpu_simd_model                       1 # 1 = post-dominator
-gpgpu_shader_core_pipeline              2048:32 # shader core pipeline config, i.e., {<nthread>:<warpsize>}
-gpgpu_tex_cache:l1  16:128:24,L:R:m:N:L,F:128:4,128:2 # per-shader L1 texture cache  (READ-ONLY) config  {<nsets>:<bsize>:<assoc>,<rep>:<wr>:<alloc>:<wr_alloc>,<mshr>:<N>:<merge>,<mq>:<rf>}
-gpgpu_const_cache:l1 128:64:2,L:R:f:N:L,A:2:64,4 # per-shader L1 constant memory cache  (READ-ONLY) config  {<nsets>:<bsize>:<assoc>,<rep>:<wr>:<alloc>:<wr_alloc>,<mshr>:<N>:<merge>,<mq>} 
-gpgpu_cache:il1     8:128:4,L:R:f:N:L,A:2:48,4 # shader L1 instruction cache config  {<nsets>:<bsize>:<assoc>,<rep>:<wr>:<alloc>:<wr_alloc>,<mshr>:<N>:<merge>,<mq>} 
-gpgpu_cache:dl1     64:128:6,L:L:m:N:H,A:128:8,8 # per-shader L1 data cache config  {<nsets>:<bsize>:<assoc>,<rep>:<wr>:<alloc>:<wr_alloc>,<mshr>:<N>:<merge>,<mq> | none}
-gpgpu_cache:dl1PrefL1                 none # per-shader L1 data cache config  {<nsets>:<bsize>:<assoc>,<rep>:<wr>:<alloc>:<wr_alloc>,<mshr>:<N>:<merge>,<mq> | none}
-gpgpu_cache:dl1PrefShared                 none # per-shader L1 data cache config  {<nsets>:<bsize>:<assoc>,<rep>:<wr>:<alloc>:<wr_alloc>,<mshr>:<N>:<merge>,<mq> | none}
-gmem_skip_L1D                          1 # global memory access skip L1D cache (implements -Xptxas -dlcm=cg, default=no skip)
-gpgpu_perfect_mem                      0 # enable perfect memory mode (no cache miss)
-n_regfile_gating_group                    4 # group of lanes that should be read/written together)
-gpgpu_clock_gated_reg_file                    0 # enable clock gated reg file for power calculations
-gpgpu_clock_gated_lanes                    0 # enable clock gated lanes for power calculations
-gpgpu_shader_registers                65536 # Number of registers per shader core. Limits number of concurrent CTAs. (default 8192)
-gpgpu_shader_cta                      32 # Maximum number of concurrent CTAs in shader (default 8)
-gpgpu_num_cta_barriers                   16 # Maximum number of named barriers per CTA (default 16)
-gpgpu_n_clusters                      28 # number of processing clusters
-gpgpu_n_cores_per_cluster                    1 # number of simd cores per cluster
-gpgpu_n_cluster_ejection_buffer_size                    8 # number of packets in ejection buffer
-gpgpu_n_ldst_response_buffer_size                    2 # number of response packets in ld/st unit ejection buffer
-gpgpu_shmem_size                   16384 # Size of shared memory per shader core (default 16kB)
-gpgpu_shmem_size                   98304 # Size of shared memory per shader core (default 16kB)
-gpgpu_shmem_size_PrefL1                16384 # Size of shared memory per shader core (default 16kB)
-gpgpu_shmem_size_PrefShared                16384 # Size of shared memory per shader core (default 16kB)
-gpgpu_shmem_num_banks                   32 # Number of banks in the shared memory in each shader core (default 16)
-gpgpu_shmem_limited_broadcast                    0 # Limit shared memory to do one broadcast per cycle (default on)
-gpgpu_shmem_warp_parts                    1 # Number of portions a warp is divided into for shared memory bank conflict check 
-gpgpu_warpdistro_shader                   -1 # Specify which shader core to collect the warp size distribution from
-gpgpu_warp_issue_shader                    0 # Specify which shader core to collect the warp issue distribution from
-gpgpu_local_mem_map                    1 # Mapping from local memory space address to simulated GPU physical address space (default = enabled)
-gpgpu_num_reg_banks                   32 # Number of register banks (default = 8)
-gpgpu_reg_bank_use_warp_id                    0 # Use warp ID in mapping registers to banks (default = off)
-gpgpu_operand_collector_num_units_sp                   20 # number of collector units (default = 4)
-gpgpu_operand_collector_num_units_sfu                    4 # number of collector units (default = 4)
-gpgpu_operand_collector_num_units_mem                    8 # number of collector units (default = 2)
-gpgpu_operand_collector_num_units_gen                    0 # number of collector units (default = 0)
-gpgpu_operand_collector_num_in_ports_sp                    4 # number of collector unit in ports (default = 1)
-gpgpu_operand_collector_num_in_ports_sfu                    1 # number of collector unit in ports (default = 1)
-gpgpu_operand_collector_num_in_ports_mem                    1 # number of collector unit in ports (default = 1)
-gpgpu_operand_collector_num_in_ports_gen                    0 # number of collector unit in ports (default = 0)
-gpgpu_operand_collector_num_out_ports_sp                    4 # number of collector unit in ports (default = 1)
-gpgpu_operand_collector_num_out_ports_sfu                    1 # number of collector unit in ports (default = 1)
-gpgpu_operand_collector_num_out_ports_mem                    1 # number of collector unit in ports (default = 1)
-gpgpu_operand_collector_num_out_ports_gen                    0 # number of collector unit in ports (default = 0)
-gpgpu_coalesce_arch                   13 # Coalescing arch (default = 13, anything else is off for now)
-gpgpu_num_sched_per_core                    2 # Number of warp schedulers per core
-gpgpu_max_insn_issue_per_warp                    2 # Max number of instructions that can be issued per warp in one cycle by scheduler
-gpgpu_simt_core_sim_order                    1 # Select the simulation order of cores in a cluster (0=Fix, 1=Round-Robin)
-gpgpu_pipeline_widths        4,1,1,4,1,1,6 # Pipeline widths ID_OC_SP,ID_OC_SFU,ID_OC_MEM,OC_EX_SP,OC_EX_SFU,OC_EX_MEM,EX_WB
-gpgpu_num_sp_units                     4 # Number of SP units (default=1)
-gpgpu_num_sfu_units                    1 # Number of SF units (default=1)
-gpgpu_num_mem_units                    1 # Number if ldst units (default=1) WARNING: not hooked up to anything
-gpgpu_scheduler                      gto # Scheduler configuration: < lrr | gto | two_level_active > If two_level_active:<num_active_warps>:<inner_prioritization>:<outer_prioritization>For complete list of prioritization values see shader.h enum scheduler_prioritization_typeDefault: gto
-gpgpu_concurrent_kernel_sm                    0 # Support concurrent kernels on a SM (default = disabled)
-tlb_size                            4096 # Number of tlb entries per SM.
-gpgpu_dram_scheduler                    1 # 0 = fifo, 1 = FR-FCFS (defaul)
-gpgpu_dram_partition_queues              8:8:8:8 # i2$:$2d:d2$:$2i
-l2_ideal                               0 # Use a ideal L2 cache that always hit
-gpgpu_cache:dl2     64:128:16,L:B:m:W:L,A:1024:1024,4:0,32 # unified banked L2 data cache config  {<nsets>:<bsize>:<assoc>,<rep>:<wr>:<alloc>:<wr_alloc>,<mshr>:<N>:<merge>,<mq>}
-gpgpu_cache:dl2_texture_only                    0 # L2 cache used for texture only
-gpgpu_n_mem                           11 # number of memory modules (e.g. memory controllers) in gpu
-gpgpu_n_sub_partition_per_mchannel                    2 # number of memory subpartition in each memory module
-gpgpu_n_mem_per_ctrlr                    1 # number of memory chips per memory controller
-gpgpu_memlatency_stat                   14 # track and display latency statistics 0x2 enables MC, 0x4 enables queue logs
-gpgpu_frfcfs_dram_sched_queue_size                   64 # 0 = unlimited (default); # entries per chip
-gpgpu_dram_return_queue_size                  116 # 0 = unlimited (default); # entries per chip
-gpgpu_dram_buswidth                    4 # default = 4 bytes (8 bytes per cycle at DDR)
-gpgpu_dram_burst_length                    8 # Burst length of each DRAM request (default = 4 data bus cycle)
-dram_data_command_freq_ratio                    4 # Frequency ratio between DRAM data bus and command bus (default = 2 times, i.e. DDR)
-gpgpu_dram_timing_opt nbk=16:CCD=2:RRD=6:RCD=12:RAS=28:RP=12:RC=40: CL=12:WL=4:CDLR=5:WR=12:nbkgrp=1:CCDL=0:RTPL=0 # DRAM timing parameters = {nbk:tCCD:tRRD:tRCD:tRAS:tRP:tRC:CL:WL:tCDLR:tWR:nbkgrp:tCCDL:tRTPL}
-rop_latency                          120 # ROP queue latency (default 85)
-dram_latency                         100 # DRAM latency (default 30)
-gpgpu_mem_addr_mapping dramid@8;00000000.00000000.00000000.00000000.0000RRRR.RRRRRRRR.RBBBCCCC.BCCSSSSS # mapping memory address to dram model {dramid@<start bit>;<memory address map>}
-gpgpu_mem_addr_test                    0 # run sweep test to check address mapping for aliased address
-gpgpu_mem_address_mask                    1 # 0 = old addressing mask, 1 = new addressing mask, 2 = new add. mask + flipped bank sel and chip sel bits
-gpuwattch_xml_file  gpuwattch_geforcegtx1080ti.xml # GPUWattch XML file
-power_simulation_enabled                    1 # Turn on power simulator (1=On, 0=Off)
-power_per_cycle_dump                    0 # Dump detailed power output each cycle
-power_trace_enabled                    0 # produce a file for the power trace (1=On, 0=Off)
-power_trace_zlevel                     6 # Compression level of the power trace output log (0=no comp, 9=highest)
-steady_power_levels_enabled                    0 # produce a file for the steady power levels (1=On, 0=Off)
-steady_state_definition                  8:4 # allowed deviation:number of samples
-gpgpu_max_cycle                        0 # terminates gpu simulation early (0 = no limit)
-gpgpu_max_insn                         0 # terminates gpu simulation early (0 = no limit)
-gpgpu_max_cta                          0 # terminates gpu simulation early (0 = no limit)
-gpgpu_runtime_stat                   500 # display runtime statistics such as dram utilization {<freq>:<flag>}
-liveness_message_freq                    1 # Minimum number of seconds between simulation liveness messages (0 = always print)
-gpgpu_flush_l1_cache                    0 # Flush L1 cache at the end of each kernel call
-gpgpu_flush_l2_cache                    0 # Flush L2 cache at the end of each kernel call
-gpgpu_deadlock_detect                    0 # Stop the simulation at deadlock (1=on (default), 0=off)
-gpgpu_ptx_instruction_classification                    0 # if enabled will classify ptx instruction types per kernel (Max 255 kernels now)
-gpgpu_ptx_sim_mode                     0 # Select between Performance (default) or Functional simulation (1)
-gpgpu_clock_domains 1481.0:2962.0:1481.0:2750.0 # Clock Domain Frequencies in MhZ {<Core Clock>:<ICNT Clock>:<L2 Clock>:<DRAM Clock>}
-gpgpu_max_concurrent_kernel                    8 # maximum kernels that can run concurrently on GPU
-gpgpu_cflog_interval                    0 # Interval between each snapshot in control flow logger
-visualizer_enabled                     0 # Turn on visualizer output (1=On, 0=Off)
-visualizer_outputfile                 NULL # Specifies the output log file for visualizer
-visualizer_zlevel                      6 # Compression level of the visualizer output log (0=no comp, 9=highest)
-trace_enabled                          0 # Turn on traces
-trace_components                    none # comma seperated list of traces to enable. Complete list found in trace_streams.tup. Default none
-trace_sampling_core                    0 # The core which is printed using CORE_DPRINTF. Default 0
-trace_sampling_memory_partition                   -1 # The memory partition which is printed using MEMPART_DPRINTF. Default -1 (i.e. all)
-gddr_size                            1GB # Size of GDDR in MB/GB.(GLOBAL_HEAP_START, GLOBAL_HEAP_START + gddr_size) would be used for unmanged memory, (GLOBAL_HEAP_START + gddr_size, GLOBAL_HEAP_START + gddr_size*2) would be used for managed memory. 
-page_table_walk_latency                  100 # Average page table walk latency (in core cycle).
-eviction_policy                      lru # Memory eviction policy: lru or random.
-percentage_of_free_page_buffer                    0 # Percentage of free page buffer to trigger the page eviction.
-page_size                            4KB # GDDR page size, only 4KB/2MB avaliable.
-pcie_bandwith                   16.0GB/s # PCI-e bandwith per direction, in GB/s.
-enable_nvlink                          1 # Enable nvlink 2.0, 150.0GB/s
-enable_rdma                            0 # Enable remote direct memory access
-migrate_threshold                     10 # Access counter threshold for migrating the page from cpu to gpu
-sim_prof_enable                        1 # Enable gpgpu-sim profiler
-hardware_prefetch                      1 # Enable gpgpu-sim hardware prefetcher
-page_fault_latency                 66645 # Average fault latency (in core cycle).
-enable_accurate_simulation                    0 # Enable page fault functional simulation.
-enable_ptx_file_line_stats                    1 # Turn on PTX source line statistic profiling. (1 = On)
-ptx_line_stats_filename gpgpu_inst_stats.txt # Output file for PTX source line statistics.
-gpgpu_kernel_launch_latency               222150 # Kernel launch latency in cycles. Default: 0
-gpgpu_cdp_enabled                      0 # Turn on CDP
-save_embedded_ptx                      0 # saves ptx files embedded in binary as <n>.ptx
-keep                                   0 # keep intermediate files created by GPGPU-Sim when interfacing with external programs
-gpgpu_ptx_save_converted_ptxplus                    0 # Saved converted ptxplus to a file
-ptx_opcode_latency_int         4,13,4,5,145 # Opcode latencies for integers <ADD,MAX,MUL,MAD,DIV>Default 1,1,19,25,145
-ptx_opcode_latency_fp          4,13,4,5,39 # Opcode latencies for single precision floating points <ADD,MAX,MUL,MAD,DIV>Default 1,1,1,1,30
-ptx_opcode_latency_dp         8,19,8,8,330 # Opcode latencies for double precision floating points <ADD,MAX,MUL,MAD,DIV>Default 8,8,8,8,335
-ptx_opcode_initiation_int            1,2,2,2,8 # Opcode initiation intervals for integers <ADD,MAX,MUL,MAD,DIV>Default 1,1,4,4,32
-ptx_opcode_initiation_fp            1,2,1,1,4 # Opcode initiation intervals for single precision floating points <ADD,MAX,MUL,MAD,DIV>Default 1,1,1,1,5
-ptx_opcode_initiation_dp          1,2,1,1,130 # Opcode initiation intervals for double precision floating points <ADD,MAX,MUL,MAD,DIV>Default 8,8,8,8,130
-cdp_latency         7200,8000,100,12000,1600 # CDP API latency <cudaStreamCreateWithFlags, cudaGetParameterBufferV2_init_perWarp, cudaGetParameterBufferV2_perKernel, cudaLaunchDeviceV2_init_perWarp, cudaLaunchDevicV2_perKernel>Default 7200,8000,100,12000,1600
DRAM Timing Options:
nbk                                    16 # number of banks
CCD                                     2 # column to column delay
RRD                                     6 # minimal delay between activation of rows in different banks
RCD                                    12 # row to column delay
RAS                                    28 # time needed to activate row
RP                                     12 # time needed to precharge (deactivate) row
RC                                     40 # row cycle time
CDLR                                    5 # switching from write to read (changes tWTR)
WR                                     12 # last data-in to row precharge
CL                                     12 # CAS latency
WL                                      4 # Write latency
nbkgrp                                  1 # number of bank groups
CCDL                                    0 # column to column delay between accesses to different bank groups
RTPL                                    0 # read to precharge delay between accesses to different bank groups
Total number of memory sub partition = 22
addr_dec_mask[CHIP]  = 0000000000000000 	high:64 low:0
addr_dec_mask[BK]    = 0000000000007080 	high:15 low:7
addr_dec_mask[ROW]   = 000000000fff8000 	high:28 low:15
addr_dec_mask[COL]   = 0000000000000f7f 	high:12 low:0
addr_dec_mask[BURST] = 000000000000001f 	high:5 low:0
sub_partition_id_mask = 0000000000000080
GPGPU-Sim uArch: clock freqs: 1481000000.000000:2962000000.000000:1481000000.000000:2750000000.000000
GPGPU-Sim uArch: clock periods: 0.00000000067521944632:0.00000000033760972316:0.00000000067521944632:0.00000000036363636364
*** Initializing Memory Statistics ***
GPGPU-Sim uArch: interconnect node map (shaderID+MemID to icntID)
GPGPU-Sim uArch: Memory nodes ID start from index: 28
GPGPU-Sim uArch:    0   1   2   3   4   5   6
GPGPU-Sim uArch:    7   8   9  10  11  12  13
GPGPU-Sim uArch:   14  15  16  17  18  19  20
GPGPU-Sim uArch:   21  22  23  24  25  26  27
GPGPU-Sim uArch:   28  29  30  31  32  33  34
GPGPU-Sim uArch:   35  36  37  38  39  40  41
GPGPU-Sim uArch:   42  43  44  45  46  47  48
GPGPU-Sim uArch:   49
GPGPU-Sim uArch: interconnect node reverse map (icntID to shaderID+MemID)
GPGPU-Sim uArch: Memory nodes start from ID: 28
GPGPU-Sim uArch:    0   1   2   3   4   5   6
GPGPU-Sim uArch:    7   8   9  10  11  12  13
GPGPU-Sim uArch:   14  15  16  17  18  19  20
GPGPU-Sim uArch:   21  22  23  24  25  26  27
GPGPU-Sim uArch:   28  29  30  31  32  33  34
GPGPU-Sim uArch:   35  36  37  38  39  40  41
GPGPU-Sim uArch:   42  43  44  45  46  47  48
GPGPU-Sim uArch:   49
dd7257aa67d61aaa87f5470cb384dcca  /home/gpuser/Documents/gpgpu-sim_UVM_nvlink_rdma_without_eviction/benchmarks/Managed/stencil/main
GPGPU-Sim uArch: performance model initialization complete.
GPGPU-Sim PTX: __cudaRegisterFatBinary, fat_cubin_handle = 1, filename=default
self exe links to: /home/gpuser/Documents/gpgpu-sim_UVM_nvlink_rdma_without_eviction/benchmarks/Managed/stencil/main
Running md5sum using "md5sum /home/gpuser/Documents/gpgpu-sim_UVM_nvlink_rdma_without_eviction/benchmarks/Managed/stencil/main "
Parsing file _cuobjdump_complete_output_nFTYL5
######### cuobjdump parser ########
## Adding new section ELF
Adding arch: sm_20
Adding identifier: default
## Adding new section ELF
Adding arch: sm_20
Adding identifier: default
## Adding new section PTX
Adding ptx filename: _cuobjdump_1.ptx
Adding arch: sm_20
Adding identifier: default
## Adding new section ELF
Adding arch: sm_20
Adding identifier: default
## Adding new section PTX
Adding ptx filename: _cuobjdump_2.ptx
Adding arch: sm_20
Adding identifier: default
Done parsing!!!
GPGPU-Sim PTX: __cudaRegisterFatBinary, fat_cubin_handle = 2, filename=default
GPGPU-Sim PTX: __cudaRegisterFunction _Z24block2D_hybrid_coarsen_xffPfS_iii : hostFun 0x0x401496, fat_cubin_handle = 2
GPGPU-Sim PTX: allocating shared region for "sh_A0" from 0x0 to 0x0 (shared memory space)
GPGPU-Sim PTX: instruction assembly for function '_Z24block2D_hybrid_coarsen_xffPfS_iii'...   done.
GPGPU-Sim PTX: finding reconvergence points for '_Z24block2D_hybrid_coarsen_xffPfS_iii'...
GPGPU-Sim PTX: Finding dominators for '_Z24block2D_hybrid_coarsen_xffPfS_iii'...
GPGPU-Sim PTX: Finding immediate dominators for '_Z24block2D_hybrid_coarsen_xffPfS_iii'...
GPGPU-Sim PTX: Finding postdominators for '_Z24block2D_hybrid_coarsen_xffPfS_iii'...
GPGPU-Sim PTX: Finding immediate postdominators for '_Z24block2D_hybrid_coarsen_xffPfS_iii'...
GPGPU-Sim PTX: pre-decoding instructions for '_Z24block2D_hybrid_coarsen_xffPfS_iii'...
GPGPU-Sim PTX: reconvergence points for _Z24block2D_hybrid_coarsen_xffPfS_iii...
GPGPU-Sim PTX:  1 (potential) branch divergence @  PC=0x170 (_2.ptx:82) @!%p13 bra BB0_2;
GPGPU-Sim PTX:    immediate post dominator      @  PC=0x200 (_2.ptx:104) mov.f32 %f64, %f69;
GPGPU-Sim PTX:  2 (potential) branch divergence @  PC=0x178 (_2.ptx:83) bra.uni BB0_1;
GPGPU-Sim PTX:    immediate post dominator      @  PC=0x180 (_2.ptx:86) mad.lo.s32 %r33, %r3, %r6, %r1;
GPGPU-Sim PTX:  3 (potential) branch divergence @  PC=0x228 (_2.ptx:109) @!%p16 bra BB0_4;
GPGPU-Sim PTX:    immediate post dominator      @  PC=0x2b0 (_2.ptx:130) mov.f32 %f67, %f68;
GPGPU-Sim PTX:  4 (potential) branch divergence @  PC=0x230 (_2.ptx:110) bra.uni BB0_3;
GPGPU-Sim PTX:    immediate post dominator      @  PC=0x238 (_2.ptx:113) mad.lo.s32 %r58, %r3, %r6, %r2;
GPGPU-Sim PTX:  5 (potential) branch divergence @  PC=0x2d0 (_2.ptx:134) @%p17 bra BB0_33;
GPGPU-Sim PTX:    immediate post dominator      @  PC=0x868 (_2.ptx:370) ret;
GPGPU-Sim PTX:  6 (potential) branch divergence @  PC=0x300 (_2.ptx:143) @!%p13 bra BB0_8;
GPGPU-Sim PTX:    immediate post dominator      @  PC=0x348 (_2.ptx:156) @!%p5 bra BB0_19;
GPGPU-Sim PTX:  7 (potential) branch divergence @  PC=0x308 (_2.ptx:144) bra.uni BB0_7;
GPGPU-Sim PTX:    immediate post dominator      @  PC=0x310 (_2.ptx:147) add.s32 %r75, %r273, 1;
GPGPU-Sim PTX:  8 (potential) branch divergence @  PC=0x348 (_2.ptx:156) @!%p5 bra BB0_19;
GPGPU-Sim PTX:    immediate post dominator      @  PC=0x590 (_2.ptx:251) @!%p16 bra BB0_21;
GPGPU-Sim PTX:  9 (potential) branch divergence @  PC=0x350 (_2.ptx:157) bra.uni BB0_9;
GPGPU-Sim PTX:    immediate post dominator      @  PC=0x358 (_2.ptx:160) add.s32 %r89, %r13, -1;
GPGPU-Sim PTX: 10 (potential) branch divergence @  PC=0x368 (_2.ptx:162) @%p21 bra BB0_11;
GPGPU-Sim PTX:    immediate post dominator      @  PC=0x3e8 (_2.ptx:184) setp.eq.s32%p22, %r15, 0;
GPGPU-Sim PTX: 11 (potential) branch divergence @  PC=0x370 (_2.ptx:163) bra.uni BB0_10;
GPGPU-Sim PTX:    immediate post dominator      @  PC=0x3b8 (_2.ptx:176) shl.b32 %r92, %r11, 1;
GPGPU-Sim PTX: 12 (potential) branch divergence @  PC=0x3b0 (_2.ptx:173) bra.uni BB0_12;
GPGPU-Sim PTX:    immediate post dominator      @  PC=0x3e8 (_2.ptx:184) setp.eq.s32%p22, %r15, 0;
GPGPU-Sim PTX: 13 (potential) branch divergence @  PC=0x3f0 (_2.ptx:185) @%p22 bra BB0_14;
GPGPU-Sim PTX:    immediate post dominator      @  PC=0x470 (_2.ptx:207) setp.eq.s32%p23, %r12, 0;
GPGPU-Sim PTX: 14 (potential) branch divergence @  PC=0x3f8 (_2.ptx:186) bra.uni BB0_13;
GPGPU-Sim PTX:    immediate post dominator      @  PC=0x440 (_2.ptx:199) shl.b32 %r111, %r11, 1;
GPGPU-Sim PTX: 15 (potential) branch divergence @  PC=0x438 (_2.ptx:196) bra.uni BB0_15;
GPGPU-Sim PTX:    immediate post dominator      @  PC=0x470 (_2.ptx:207) setp.eq.s32%p23, %r12, 0;
GPGPU-Sim PTX: 16 (potential) branch divergence @  PC=0x478 (_2.ptx:208) @%p23 bra BB0_17;
GPGPU-Sim PTX:    immediate post dominator      @  PC=0x4f0 (_2.ptx:229) mad.lo.s32 %r149, %r273, %r7, %r3;
GPGPU-Sim PTX: 17 (potential) branch divergence @  PC=0x480 (_2.ptx:209) bra.uni BB0_16;
GPGPU-Sim PTX:    immediate post dominator      @  PC=0x4c8 (_2.ptx:222) shl.b32 %r129, %r11, 1;
GPGPU-Sim PTX: 18 (potential) branch divergence @  PC=0x4c0 (_2.ptx:219) bra.uni BB0_18;
GPGPU-Sim PTX:    immediate post dominator      @  PC=0x4f0 (_2.ptx:229) mad.lo.s32 %r149, %r273, %r7, %r3;
GPGPU-Sim PTX: 19 (potential) branch divergence @  PC=0x590 (_2.ptx:251) @!%p16 bra BB0_21;
GPGPU-Sim PTX:    immediate post dominator      @  PC=0x5d8 (_2.ptx:264) @!%p4 bra BB0_32;
GPGPU-Sim PTX: 20 (potential) branch divergence @  PC=0x598 (_2.ptx:252) bra.uni BB0_20;
GPGPU-Sim PTX:    immediate post dominator      @  PC=0x5a0 (_2.ptx:255) add.s32 %r168, %r273, 1;
GPGPU-Sim PTX: 21 (potential) branch divergence @  PC=0x5d8 (_2.ptx:264) @!%p4 bra BB0_32;
GPGPU-Sim PTX:    immediate post dominator      @  PC=0x820 (_2.ptx:359) bar.sync 0;
GPGPU-Sim PTX: 22 (potential) branch divergence @  PC=0x5e0 (_2.ptx:265) bra.uni BB0_22;
GPGPU-Sim PTX:    immediate post dominator      @  PC=0x5e8 (_2.ptx:268) add.s32 %r183, %r13, -1;
GPGPU-Sim PTX: 23 (potential) branch divergence @  PC=0x5f8 (_2.ptx:270) @%p27 bra BB0_24;
GPGPU-Sim PTX:    immediate post dominator      @  PC=0x678 (_2.ptx:292) setp.eq.s32%p28, %r15, 0;
GPGPU-Sim PTX: 24 (potential) branch divergence @  PC=0x600 (_2.ptx:271) bra.uni BB0_23;
GPGPU-Sim PTX:    immediate post dominator      @  PC=0x648 (_2.ptx:284) shl.b32 %r186, %r11, 1;
GPGPU-Sim PTX: 25 (potential) branch divergence @  PC=0x640 (_2.ptx:281) bra.uni BB0_25;
GPGPU-Sim PTX:    immediate post dominator      @  PC=0x678 (_2.ptx:292) setp.eq.s32%p28, %r15, 0;
GPGPU-Sim PTX: 26 (potential) branch divergence @  PC=0x680 (_2.ptx:293) @%p28 bra BB0_27;
GPGPU-Sim PTX:    immediate post dominator      @  PC=0x700 (_2.ptx:315) shl.b32 %r228, %r11, 1;
GPGPU-Sim PTX: 27 (potential) branch divergence @  PC=0x688 (_2.ptx:294) bra.uni BB0_26;
GPGPU-Sim PTX:    immediate post dominator      @  PC=0x6d0 (_2.ptx:307) shl.b32 %r207, %r11, 1;
GPGPU-Sim PTX: 28 (potential) branch divergence @  PC=0x6c8 (_2.ptx:304) bra.uni BB0_28;
GPGPU-Sim PTX:    immediate post dominator      @  PC=0x700 (_2.ptx:315) shl.b32 %r228, %r11, 1;
GPGPU-Sim PTX: 29 (potential) branch divergence @  PC=0x718 (_2.ptx:318) @%p29 bra BB0_30;
GPGPU-Sim PTX:    immediate post dominator      @  PC=0x788 (_2.ptx:338) mad.lo.s32 %r253, %r273, %r7, %r3;
GPGPU-Sim PTX: 30 (potential) branch divergence @  PC=0x720 (_2.ptx:319) bra.uni BB0_29;
GPGPU-Sim PTX:    immediate post dominator      @  PC=0x768 (_2.ptx:332) mad.lo.s32 %r235, %r228, %r15, %r19;
GPGPU-Sim PTX: 31 (potential) branch divergence @  PC=0x760 (_2.ptx:329) bra.uni BB0_31;
GPGPU-Sim PTX:    immediate post dominator      @  PC=0x788 (_2.ptx:338) mad.lo.s32 %r253, %r273, %r7, %r3;
GPGPU-Sim PTX: 32 (potential) branch divergence @  PC=0x860 (_2.ptx:367) @%p30 bra BB0_6;
GPGPU-Sim PTX:    immediate post dominator      @  PC=0x868 (_2.ptx:370) ret;
GPGPU-Sim PTX: ... end of reconvergence points for _Z24block2D_hybrid_coarsen_xffPfS_iii
GPGPU-Sim PTX: ... done pre-decoding instructions for '_Z24block2D_hybrid_coarsen_xffPfS_iii'.
GPGPU-Sim PTX: finished parsing EMBEDDED .ptx file _2.ptx
Adding _cuobjdump_1.ptx with cubin handle 2
GPGPU-Sim PTX: extracting embedded .ptx to temporary file "_ptx_3x4YAl"
Running: cat _ptx_3x4YAl | sed 's/.version 1.5/.version 1.4/' | sed 's/, texmode_independent//' | sed 's/\(\.extern \.const\[1\] .b8 \w\+\)\[\]/\1\[1\]/' | sed 's/const\[.\]/const\[0\]/g' > _ptx2_OsL2pB
GPGPU-Sim PTX: generating ptxinfo using "$CUDA_INSTALL_PATH/bin/ptxas --gpu-name=sm_20 -v _ptx2_OsL2pB --output-file  /dev/null 2> _ptx_3x4YAlinfo"
GPGPU-Sim PTX: Kernel '_Z24block2D_hybrid_coarsen_xffPfS_iii' : regs=20, lmem=0, smem=0, cmem=68
GPGPU-Sim PTX: removing ptxinfo using "rm -f _ptx_3x4YAl _ptx2_OsL2pB _ptx_3x4YAlinfo"
GPGPU-Sim PTX: loading globals with explicit initializers... 
GPGPU-Sim PTX: finished loading globals (0 bytes total).
GPGPU-Sim PTX: loading constants with explicit initializers...  done.
CUDA accelerated 7 points stencil codes****
Original version by Li-Wen Chang <lchang20@illinois.edu> and I-Jui Sung<sung10@illinois.edu>
This version maintained by Chris Rodrigues  ***********

GPGPU-Sim PTX: cudaLaunch for 0x0x401496 (mode=performance simulation) on stream 0
GPGPU-Sim PTX: pushing kernel '_Z24block2D_hybrid_coarsen_xffPfS_iii' to stream 0, gridDim= (2,32,1) blockDim = (32,4,1) 
GPGPU-Sim uArch: Shader 1 bind to kernel 1 '_Z24block2D_hybrid_coarsen_xffPfS_iii'
GPGPU-Sim uArch: CTA/core = 16, limited by: threads
GPGPU-Sim uArch: Shader 2 bind to kernel 1 '_Z24block2D_hybrid_coarsen_xffPfS_iii'
GPGPU-Sim uArch: Shader 3 bind to kernel 1 '_Z24block2D_hybrid_coarsen_xffPfS_iii'
GPGPU-Sim uArch: Shader 4 bind to kernel 1 '_Z24block2D_hybrid_coarsen_xffPfS_iii'
GPGPU-Sim uArch: Shader 5 bind to kernel 1 '_Z24block2D_hybrid_coarsen_xffPfS_iii'
GPGPU-Sim uArch: Shader 6 bind to kernel 1 '_Z24block2D_hybrid_coarsen_xffPfS_iii'
GPGPU-Sim uArch: Shader 7 bind to kernel 1 '_Z24block2D_hybrid_coarsen_xffPfS_iii'
GPGPU-Sim uArch: Shader 8 bind to kernel 1 '_Z24block2D_hybrid_coarsen_xffPfS_iii'
GPGPU-Sim uArch: Shader 9 bind to kernel 1 '_Z24block2D_hybrid_coarsen_xffPfS_iii'
GPGPU-Sim uArch: Shader 10 bind to kernel 1 '_Z24block2D_hybrid_coarsen_xffPfS_iii'
GPGPU-Sim uArch: Shader 11 bind to kernel 1 '_Z24block2D_hybrid_coarsen_xffPfS_iii'
GPGPU-Sim uArch: Shader 12 bind to kernel 1 '_Z24block2D_hybrid_coarsen_xffPfS_iii'
GPGPU-Sim uArch: Shader 13 bind to kernel 1 '_Z24block2D_hybrid_coarsen_xffPfS_iii'
GPGPU-Sim uArch: Shader 14 bind to kernel 1 '_Z24block2D_hybrid_coarsen_xffPfS_iii'
GPGPU-Sim uArch: Shader 15 bind to kernel 1 '_Z24block2D_hybrid_coarsen_xffPfS_iii'
GPGPU-Sim uArch: Shader 16 bind to kernel 1 '_Z24block2D_hybrid_coarsen_xffPfS_iii'
GPGPU-Sim uArch: Shader 17 bind to kernel 1 '_Z24block2D_hybrid_coarsen_xffPfS_iii'
GPGPU-Sim uArch: Shader 18 bind to kernel 1 '_Z24block2D_hybrid_coarsen_xffPfS_iii'
GPGPU-Sim uArch: Shader 19 bind to kernel 1 '_Z24block2D_hybrid_coarsen_xffPfS_iii'
GPGPU-Sim uArch: Shader 20 bind to kernel 1 '_Z24block2D_hybrid_coarsen_xffPfS_iii'
GPGPU-Sim uArch: Shader 21 bind to kernel 1 '_Z24block2D_hybrid_coarsen_xffPfS_iii'
GPGPU-Sim uArch: Shader 22 bind to kernel 1 '_Z24block2D_hybrid_coarsen_xffPfS_iii'
GPGPU-Sim uArch: Shader 23 bind to kernel 1 '_Z24block2D_hybrid_coarsen_xffPfS_iii'
GPGPU-Sim uArch: Shader 24 bind to kernel 1 '_Z24block2D_hybrid_coarsen_xffPfS_iii'
GPGPU-Sim uArch: Shader 25 bind to kernel 1 '_Z24block2D_hybrid_coarsen_xffPfS_iii'
GPGPU-Sim uArch: Shader 26 bind to kernel 1 '_Z24block2D_hybrid_coarsen_xffPfS_iii'
GPGPU-Sim uArch: Shader 27 bind to kernel 1 '_Z24block2D_hybrid_coarsen_xffPfS_iii'
GPGPU-Sim uArch: Shader 0 bind to kernel 1 '_Z24block2D_hybrid_coarsen_xffPfS_iii'
Destroy streams for kernel 1: size 0
kernel_name = _Z24block2D_hybrid_coarsen_xffPfS_iii 
kernel_launch_uid = 1 
gpu_sim_cycle = 69515
gpu_sim_insn = 28848876
gpu_ipc =     415.0022
gpu_tot_sim_cycle = 291665
gpu_tot_sim_insn = 28848876
gpu_tot_ipc =      98.9110
gpu_tot_issued_cta = 64
max_total_param_size = 0
gpu_stall_dramfull = 63666
gpu_stall_icnt2sh    = 3055
partiton_reqs_in_parallel = 1465664
partiton_reqs_in_parallel_total    = 0
partiton_level_parallism =      21.0841
partiton_level_parallism_total  =       5.0252
partiton_reqs_in_parallel_util = 1465664
partiton_reqs_in_parallel_util_total    = 0
gpu_sim_cycle_parition_util = 68572
gpu_tot_sim_cycle_parition_util    = 0
partiton_level_parallism_util =      21.3741
partiton_level_parallism_util_total  =      21.3741
partiton_replys_in_parallel = 47008
partiton_replys_in_parallel_total    = 0
L2_BW  =      64.0956 GB/Sec
L2_BW_total  =      15.2765 GB/Sec
gpu_total_sim_rate=119704

========= Core cache stats =========
L1I_cache:
	L1I_total_cache_accesses = 579228
	L1I_total_cache_misses = 3568
	L1I_total_cache_miss_rate = 0.0062
	L1I_total_cache_pending_hits = 0
	L1I_total_cache_reservation_fails = 0
L1D_cache:
	L1D_cache_core[0]: Access = 0, Miss = 0, Miss_rate = -nan, Pending_hits = 0, Reservation_fails = 0
	L1D_cache_core[1]: Access = 0, Miss = 0, Miss_rate = -nan, Pending_hits = 0, Reservation_fails = 0
	L1D_cache_core[2]: Access = 0, Miss = 0, Miss_rate = -nan, Pending_hits = 0, Reservation_fails = 0
	L1D_cache_core[3]: Access = 0, Miss = 0, Miss_rate = -nan, Pending_hits = 0, Reservation_fails = 0
	L1D_cache_core[4]: Access = 0, Miss = 0, Miss_rate = -nan, Pending_hits = 0, Reservation_fails = 0
	L1D_cache_core[5]: Access = 0, Miss = 0, Miss_rate = -nan, Pending_hits = 0, Reservation_fails = 0
	L1D_cache_core[6]: Access = 0, Miss = 0, Miss_rate = -nan, Pending_hits = 0, Reservation_fails = 0
	L1D_cache_core[7]: Access = 0, Miss = 0, Miss_rate = -nan, Pending_hits = 0, Reservation_fails = 0
	L1D_cache_core[8]: Access = 0, Miss = 0, Miss_rate = -nan, Pending_hits = 0, Reservation_fails = 0
	L1D_cache_core[9]: Access = 0, Miss = 0, Miss_rate = -nan, Pending_hits = 0, Reservation_fails = 0
	L1D_cache_core[10]: Access = 0, Miss = 0, Miss_rate = -nan, Pending_hits = 0, Reservation_fails = 0
	L1D_cache_core[11]: Access = 0, Miss = 0, Miss_rate = -nan, Pending_hits = 0, Reservation_fails = 0
	L1D_cache_core[12]: Access = 0, Miss = 0, Miss_rate = -nan, Pending_hits = 0, Reservation_fails = 0
	L1D_cache_core[13]: Access = 0, Miss = 0, Miss_rate = -nan, Pending_hits = 0, Reservation_fails = 0
	L1D_cache_core[14]: Access = 0, Miss = 0, Miss_rate = -nan, Pending_hits = 0, Reservation_fails = 0
	L1D_cache_core[15]: Access = 0, Miss = 0, Miss_rate = -nan, Pending_hits = 0, Reservation_fails = 0
	L1D_cache_core[16]: Access = 0, Miss = 0, Miss_rate = -nan, Pending_hits = 0, Reservation_fails = 0
	L1D_cache_core[17]: Access = 0, Miss = 0, Miss_rate = -nan, Pending_hits = 0, Reservation_fails = 0
	L1D_cache_core[18]: Access = 0, Miss = 0, Miss_rate = -nan, Pending_hits = 0, Reservation_fails = 0
	L1D_cache_core[19]: Access = 0, Miss = 0, Miss_rate = -nan, Pending_hits = 0, Reservation_fails = 0
	L1D_cache_core[20]: Access = 0, Miss = 0, Miss_rate = -nan, Pending_hits = 0, Reservation_fails = 0
	L1D_cache_core[21]: Access = 0, Miss = 0, Miss_rate = -nan, Pending_hits = 0, Reservation_fails = 0
	L1D_cache_core[22]: Access = 0, Miss = 0, Miss_rate = -nan, Pending_hits = 0, Reservation_fails = 0
	L1D_cache_core[23]: Access = 0, Miss = 0, Miss_rate = -nan, Pending_hits = 0, Reservation_fails = 0
	L1D_cache_core[24]: Access = 0, Miss = 0, Miss_rate = -nan, Pending_hits = 0, Reservation_fails = 0
	L1D_cache_core[25]: Access = 0, Miss = 0, Miss_rate = -nan, Pending_hits = 0, Reservation_fails = 0
	L1D_cache_core[26]: Access = 0, Miss = 0, Miss_rate = -nan, Pending_hits = 0, Reservation_fails = 0
	L1D_cache_core[27]: Access = 0, Miss = 0, Miss_rate = -nan, Pending_hits = 0, Reservation_fails = 0
	L1D_total_cache_accesses = 0
	L1D_total_cache_misses = 0
	L1D_total_cache_pending_hits = 0
	L1D_total_cache_reservation_fails = 0
	L1D_cache_data_port_util = 0.000
	L1D_cache_fill_port_util = 0.000
L1C_cache:
	L1C_total_cache_accesses = 1792
	L1C_total_cache_misses = 1632
	L1C_total_cache_miss_rate = 0.9107
	L1C_total_cache_pending_hits = 0
	L1C_total_cache_reservation_fails = 1444
L1T_cache:
	L1T_total_cache_accesses = 0
	L1T_total_cache_misses = 0
	L1T_total_cache_pending_hits = 0
	L1T_total_cache_reservation_fails = 0

Total_core_cache_stats:
	Total_core_cache_stats_breakdown[GLOBAL_ACC_R][HIT] = 0
	Total_core_cache_stats_breakdown[GLOBAL_ACC_R][HIT_RESERVED] = 0
	Total_core_cache_stats_breakdown[GLOBAL_ACC_R][MISS] = 0
	Total_core_cache_stats_breakdown[GLOBAL_ACC_R][RESERVATION_FAIL] = 0
	Total_core_cache_stats_breakdown[LOCAL_ACC_R][HIT] = 0
	Total_core_cache_stats_breakdown[LOCAL_ACC_R][HIT_RESERVED] = 0
	Total_core_cache_stats_breakdown[LOCAL_ACC_R][MISS] = 0
	Total_core_cache_stats_breakdown[LOCAL_ACC_R][RESERVATION_FAIL] = 0
	Total_core_cache_stats_breakdown[CONST_ACC_R][HIT] = 160
	Total_core_cache_stats_breakdown[CONST_ACC_R][HIT_RESERVED] = 0
	Total_core_cache_stats_breakdown[CONST_ACC_R][MISS] = 1632
	Total_core_cache_stats_breakdown[CONST_ACC_R][RESERVATION_FAIL] = 1444
	Total_core_cache_stats_breakdown[TEXTURE_ACC_R][HIT] = 0
	Total_core_cache_stats_breakdown[TEXTURE_ACC_R][HIT_RESERVED] = 0
	Total_core_cache_stats_breakdown[TEXTURE_ACC_R][MISS] = 0
	Total_core_cache_stats_breakdown[TEXTURE_ACC_R][RESERVATION_FAIL] = 0
	Total_core_cache_stats_breakdown[GLOBAL_ACC_W][HIT] = 0
	Total_core_cache_stats_breakdown[GLOBAL_ACC_W][HIT_RESERVED] = 0
	Total_core_cache_stats_breakdown[GLOBAL_ACC_W][MISS] = 0
	Total_core_cache_stats_breakdown[GLOBAL_ACC_W][RESERVATION_FAIL] = 0
	Total_core_cache_stats_breakdown[LOCAL_ACC_W][HIT] = 0
	Total_core_cache_stats_breakdown[LOCAL_ACC_W][HIT_RESERVED] = 0
	Total_core_cache_stats_breakdown[LOCAL_ACC_W][MISS] = 0
	Total_core_cache_stats_breakdown[LOCAL_ACC_W][RESERVATION_FAIL] = 0
	Total_core_cache_stats_breakdown[L1_WRBK_ACC][HIT] = 0
	Total_core_cache_stats_breakdown[L1_WRBK_ACC][HIT_RESERVED] = 0
	Total_core_cache_stats_breakdown[L1_WRBK_ACC][MISS] = 0
	Total_core_cache_stats_breakdown[L1_WRBK_ACC][RESERVATION_FAIL] = 0
	Total_core_cache_stats_breakdown[L2_WRBK_ACC][HIT] = 0
	Total_core_cache_stats_breakdown[L2_WRBK_ACC][HIT_RESERVED] = 0
	Total_core_cache_stats_breakdown[L2_WRBK_ACC][MISS] = 0
	Total_core_cache_stats_breakdown[L2_WRBK_ACC][RESERVATION_FAIL] = 0
	Total_core_cache_stats_breakdown[INST_ACC_R][HIT] = 575660
	Total_core_cache_stats_breakdown[INST_ACC_R][HIT_RESERVED] = 0
	Total_core_cache_stats_breakdown[INST_ACC_R][MISS] = 3568
	Total_core_cache_stats_breakdown[INST_ACC_R][RESERVATION_FAIL] = 0
	Total_core_cache_stats_breakdown[L1_WR_ALLOC_R][HIT] = 0
	Total_core_cache_stats_breakdown[L1_WR_ALLOC_R][HIT_RESERVED] = 0
	Total_core_cache_stats_breakdown[L1_WR_ALLOC_R][MISS] = 0
	Total_core_cache_stats_breakdown[L1_WR_ALLOC_R][RESERVATION_FAIL] = 0
	Total_core_cache_stats_breakdown[L2_WR_ALLOC_R][HIT] = 0
	Total_core_cache_stats_breakdown[L2_WR_ALLOC_R][HIT_RESERVED] = 0
	Total_core_cache_stats_breakdown[L2_WR_ALLOC_R][MISS] = 0
	Total_core_cache_stats_breakdown[L2_WR_ALLOC_R][RESERVATION_FAIL] = 0
	Total_core_cache_stats_breakdown[CONST_ACC_R][TOTAL_ACCESS] = 1792
	Total_core_cache_stats_breakdown[INST_ACC_R][TOTAL_ACCESS] = 579228
Shader 0 warp_id issue ditsribution:
warp_id:
0, 1, 2, 3, 4, 5, 6, 7, 
distro:
4828, 4643, 4648, 4815, 4828, 4645, 4648, 4812, 
gpgpu_n_tot_thrd_icount = 33319424
gpgpu_n_tot_w_icount = 1041232
gpgpu_n_stall_shd_mem = 132484
gpgpu_n_mem_read_local = 0
gpgpu_n_mem_write_local = 0
gpgpu_n_mem_read_global = 31384
gpgpu_n_mem_write_global = 15120
gpgpu_n_mem_texture = 0
gpgpu_n_mem_const = 28
gpgpu_n_load_insn  = 766208
gpgpu_n_store_insn = 476280
gpgpu_n_shmem_insn = 3155288
gpgpu_n_tex_insn = 0
gpgpu_n_const_mem_insn = 0
gpgpu_n_param_mem_insn = 57344
gpgpu_n_shmem_bkconflict = 0
gpgpu_n_cache_bkconflict = 0
gpgpu_n_intrawarp_mshr_merge = 0
gpgpu_n_cmem_portconflict = 1444
gpgpu_stall_shd_mem[c_mem][bk_conf] = 1444
gpgpu_stall_shd_mem[c_mem][mshr_rc] = 0
gpgpu_stall_shd_mem[c_mem][icnt_rc] = 0
gpgpu_stall_shd_mem[c_mem][data_port_stall] = 0
gpgpu_stall_shd_mem[t_mem][mshr_rc] = 0
gpgpu_stall_shd_mem[t_mem][icnt_rc] = 0
gpgpu_stall_shd_mem[t_mem][data_port_stall] = 0
gpgpu_stall_shd_mem[s_mem][bk_conf] = 0
gpgpu_stall_shd_mem[gl_mem][bk_conf] = 0
gpgpu_stall_shd_mem[gl_mem][coal_stall] = 16509
gpgpu_stall_shd_mem[gl_mem][data_port_stall] = 0
gpgpu_stall_shd_mem[g_mem_ld][mshr_rc] = 0
gpgpu_stall_shd_mem[g_mem_ld][icnt_rc] = 114531
gpgpu_stall_shd_mem[g_mem_ld][wb_icnt_rc] = 0
gpgpu_stall_shd_mem[g_mem_ld][wb_rsrv_fail] = 0
gpgpu_stall_shd_mem[g_mem_st][mshr_rc] = 0
gpgpu_stall_shd_mem[g_mem_st][icnt_rc] = 0
gpgpu_stall_shd_mem[g_mem_st][wb_icnt_rc] = 0
gpgpu_stall_shd_mem[g_mem_st][wb_rsrv_fail] = 0
gpgpu_stall_shd_mem[l_mem_ld][mshr_rc] = 0
gpgpu_stall_shd_mem[l_mem_ld][icnt_rc] = 0
gpgpu_stall_shd_mem[l_mem_ld][wb_icnt_rc] = 0
gpgpu_stall_shd_mem[l_mem_ld][wb_rsrv_fail] = 0
gpgpu_stall_shd_mem[l_mem_st][mshr_rc] = 0
gpgpu_stall_shd_mem[l_mem_st][icnt_rc] = 0
gpgpu_stall_shd_mem[l_mem_ld][wb_icnt_rc] = 0
gpgpu_stall_shd_mem[l_mem_ld][wb_rsrv_fail] = 0
gpu_reg_bank_conflict_stalls = 0
Warp Occupancy Distribution:
Stall:37531	W0_Idle:146940	W0_Scoreboard:2742368	W1:60480	W2:0	W3:0	W4:0	W5:0	W6:0	W7:0	W8:0	W9:0	W10:0	W11:0	W12:0	W13:0	W14:0	W15:0	W16:0	W17:0	W18:0	W19:0	W20:0	W21:0	W22:0	W23:0	W24:0	W25:0	W26:0	W27:0	W28:0	W29:0	W30:0	W31:408180	W32:572572
traffic_breakdown_coretomem[CONST_ACC_R] = 224 {8:28,}
traffic_breakdown_coretomem[GLOBAL_ACC_R] = 251072 {8:31384,}
traffic_breakdown_coretomem[GLOBAL_ACC_W] = 2056320 {136:15120,}
traffic_breakdown_coretomem[INST_ACC_R] = 3808 {8:476,}
traffic_breakdown_memtocore[CONST_ACC_R] = 2016 {72:28,}
traffic_breakdown_memtocore[GLOBAL_ACC_R] = 3542464 {40:7560,136:23824,}
traffic_breakdown_memtocore[GLOBAL_ACC_W] = 120960 {8:15120,}
traffic_breakdown_memtocore[INST_ACC_R] = 64736 {136:476,}
maxmrqlatency = 1746 
maxdqlatency = 0 
maxmflatency = 12576 
averagemflatency = 1559 

GPGPU-Sim PTX: cudaLaunch for 0x0x401496 (mode=performance simulation) on stream 0
GPGPU-Sim PTX: pushing kernel '_Z24block2D_hybrid_coarsen_xffPfS_iii' to stream 0, gridDim= (2,32,1) blockDim = (32,4,1) 
max_icnt2mem_latency = 11626 
max_icnt2sh_latency = 291664 
mrq_lat_table:15026 	1730 	1191 	1968 	2659 	3300 	3652 	5657 	7910 	3481 	68 	0 	0 	0 	0 	0 	0 	0 	0 	0 	0 	0 	0 	0 	0 	0 	0 	0 	0 	0 	0 	0 	
dq_lat_table:0 	0 	0 	0 	0 	0 	0 	0 	0 	0 	0 	0 	0 	0 	0 	0 	0 	0 	0 	0 	0 	0 	0 	0 	0 	0 	0 	0 	0 	0 	0 	0 	
mf_lat_table:0 	0 	0 	0 	0 	0 	0 	21483 	11250 	1877 	2414 	2885 	3725 	2898 	0 	0 	0 	0 	0 	0 	0 	0 	0 	0 	0 	0 	0 	0 	0 	0 	0 	0 	
icnt2mem_lat_table:0 	4 	22993 	774 	474 	147 	10070 	213 	576 	1316 	2378 	2522 	3488 	2053 	0 	0 	0 	0 	0 	0 	0 	0 	0 	0 	
icnt2sh_lat_table:0 	0 	25658 	5620 	134 	0 	0 	0 	0 	0 	0 	0 	0 	0 	0 	0 	0 	7084 	8036 	0 	0 	0 	0 	0 	
mf_lat_pw_table:0 	0 	0 	0 	0 	0 	0 	55 	22 	5 	11 	6 	7 	4 	0 	0 	0 	0 	0 	0 	0 	0 	0 	0 	0 	0 	0 	0 	0 	0 	0 	0 	
maximum concurrent accesses to same row:
dram[0]:        32        32        32        32        32        32        32        32        32        32        32        32        32        32        32        32 
dram[1]:        32        32        32        32        32        32        32        32        32        32        32        32        32        32        32        32 
dram[2]:        32        32        32        32        32        32        32        32        32        32        32        32        32        32        32        32 
dram[3]:        32        32        32        32        32        32        32        32        32        32        32        32        32        32        32        32 
dram[4]:        32        32        32        32        32        32        32        32        32        32        32        32        32        32        32        32 
dram[5]:        32        32        32        32        32        32        32        32        32        32        32        32        32        32        32        32 
dram[6]:        32        32        32        32        32        32        32        32        32        32        32        32        32        32        32        32 
dram[7]:        32        32        32        32        32        32        32        32        32        32        32        32        32        32        32        32 
dram[8]:        32        32        32        32        32        32        32        32        32        32        32        32        32        32        32        32 
dram[9]:        32        32        32        32        32        32        32        32        32        32        32        32        32        32        32        32 
dram[10]:        32        32        32        32        32        32        32        32        32        32        32        32        32        32        32        32 
maximum service time to same row:
dram[0]:     12320     12386     13222     13102     13189     13282     11480     11902     12744     13235     12216     12126     11552     11961     12361     12752 
dram[1]:     12329     12238     13207     13104     13222     13223     11320     11987     12744     13234     12145     12048     11736     12172     12299     12647 
dram[2]:     12322     12755     13210     12862     13152     13248     11411     12026     12744     13224     12143     12020     11647     11907     12390     12756 
dram[3]:     12384     12629     13224     12937     13154     13147     11292     11892     12745     13222     12142     12380     11597     11992     12302     12687 
dram[4]:     12353     12654     13141     12728     13168     13178     11373     11999     12746     13226     12230     12553     11601     11939     12434     12738 
dram[5]:     12343     12599     13205     13151     13193     13144     11261     11908     12745     13231     12225     12479     11524     12031     12315     12713 
dram[6]:     12483     12729     13083     12941     13213     13238     11161     11967     12744     13229     12219     12589     11713     11620     12364     12652 
dram[7]:     12414     12646     13281     13262     13202     13083     11294     11820     12749     13236     12315     12206     11629     11544     12371     12764 
dram[8]:     12474     12822     13058     13095     13202     13322     11317     11918     12748     13230     12154     12181     11642     11607     12297     12614 
dram[9]:     12338     12653     13078     13135     13177     13270     11422     11877     12744     13238     12040     11964     11563     11511     12413     12672 
dram[10]:     12447     12821     13095     13122     13289     13408     11110     12030     12744     13233     12239     12259     11716     12212     12337     12447 
average row accesses per activate:
dram[0]: 23.583334 23.500000 20.923077 20.923077 22.727272 20.833334 20.833334 20.833334 20.500000 22.363636 18.615385 17.285715 19.200001 16.941177 20.642857 20.642857 
dram[1]: 18.799999 21.692308 20.461538 20.461538 23.272728 21.333334 20.833334 20.833334 20.500000 22.363636 17.357143 17.357143 22.153847 20.571428 18.062500 19.200001 
dram[2]: 24.000000 24.000000 20.461538 20.461538 23.272728 21.333334 20.833334 20.833334 20.500000 22.363636 18.692308 17.357143 19.200001 18.000000 18.799999 18.799999 
dram[3]: 16.941177 19.200001 20.461538 20.461538 23.272728 21.333334 20.833334 20.833334 17.571428 18.923077 17.357143 17.357143 22.153847 20.571428 18.799999 18.799999 
dram[4]: 24.000000 24.000000 20.461538 20.461538 22.909090 21.000000 21.333334 21.333334 20.500000 18.923077 17.357143 17.357143 19.200001 18.000000 17.687500 15.722222 
dram[5]: 14.842105 18.799999 20.769230 20.769230 22.909090 21.000000 21.333334 21.333334 20.500000 18.923077 17.357143 17.357143 22.153847 20.571428 17.687500 15.722222 
dram[6]: 15.666667 20.142857 20.769230 20.769230 22.909090 21.000000 21.333334 21.333334 20.500000 22.363636 17.357143 17.357143 21.692308 20.142857 17.000000 16.055555 
dram[7]: 18.799999 18.799999 20.769230 20.769230 22.909090 21.000000 21.333334 21.333334 20.166666 18.615385 16.600000 17.785715 21.692308 20.142857 20.642857 18.062500 
dram[8]: 17.625000 23.500000 20.769230 20.769230 22.727272 20.833334 21.333334 21.333334 20.166666 22.000000 17.785715 17.785715 21.692308 20.142857 20.642857 20.642857 
dram[9]: 24.000000 24.000000 20.769230 20.769230 22.727272 20.833334 21.333334 21.333334 20.083334 18.538462 19.153847 17.785715 18.799999 17.625000 20.214285 17.687500 
dram[10]: 24.000000 24.000000 20.769230 20.769230 22.727272 20.833334 21.333334 21.333334 20.083334 21.909090 17.500000 17.500000 22.153847 20.571428 20.214285 20.214285 
average row locality = 46642/2330 = 20.018026
number of total memory accesses made:
dram[0]:         0         0         0         0         0         0         0         0         0         0         0         0         0         0         0         0 
dram[1]:         0         0         0         0         0         0         0         0         0         0         0         0         0         0         0         0 
dram[2]:         0         0         0         0         0         0         0         0         0         0         0         0         0         0         0         0 
dram[3]:         0         0         0         0         0         0         0         0         0         0         0         0         0         0         0         0 
dram[4]:         0         0         0         0         0         0         0         0         0         0         0         0         0         0         0         0 
dram[5]:         0         0         0         0         0         0         0         0         0         0         0         0         0         0         0         0 
dram[6]:         0         0         0         0         0         0         0         0         0         0         0         0         0         0         0         0 
dram[7]:         0         0         0         0         0         0         0         0         0         0         0         0         0         0         0         0 
dram[8]:         0         0         0         0         0         0         0         0         0         0         0         0         0         0         0         0 
dram[9]:         0         0         0         0         0         0         0         0         0         0         0         0         0         0         0         0 
dram[10]:         0         0         0         0         0         0         0         0         0         0         0         0         0         0         0         0 
total accesses: 0
min_bank_accesses = 0!
min_chip_accesses = 0!
number of total read accesses:
dram[0]:       190       189       184       184       173       173       173       173       166       166       162       162       192       192       193       193 
dram[1]:       189       189       181       181       176       176       173       173       166       166       163       163       192       192       193       192 
dram[2]:       192       192       181       181       176       176       173       173       166       166       163       163       192       192       189       189 
dram[3]:       192       192       181       181       176       176       173       173       166       166       163       163       192       192       189       189 
dram[4]:       192       192       181       181       174       174       176       176       166       166       163       163       192       192       190       190 
dram[5]:       189       189       183       183       174       174       176       176       166       166       163       163       192       192       190       190 
dram[6]:       189       189       183       183       174       174       176       176       166       166       163       163       189       189       193       193 
dram[7]:       189       189       183       183       174       174       176       176       164       164       166       166       189       189       193       193 
dram[8]:       189       189       183       183       173       173       176       176       164       164       166       166       189       189       193       193 
dram[9]:       192       192       183       183       173       173       176       176       163       163       166       166       189       189       190       190 
dram[10]:       192       192       183       183       173       173       176       176       163       163       164       164       192       192       190       190 
total reads: 31522
bank skew: 193/162 = 1.19
chip skew: 2868/2864 = 1.00
number of total write accesses:
dram[0]:        93        93        88        88        77        77        77        77        80        80        80        80        96        96        96        96 
dram[1]:        93        93        85        85        80        80        77        77        80        80        80        80        96        96        96        96 
dram[2]:        96        96        85        85        80        80        77        77        80        80        80        80        96        96        93        93 
dram[3]:        96        96        85        85        80        80        77        77        80        80        80        80        96        96        93        93 
dram[4]:        96        96        85        85        78        78        80        80        80        80        80        80        96        96        93        93 
dram[5]:        93        93        87        87        78        78        80        80        80        80        80        80        96        96        93        93 
dram[6]:        93        93        87        87        78        78        80        80        80        80        80        80        93        93        96        96 
dram[7]:        93        93        87        87        78        78        80        80        78        78        83        83        93        93        96        96 
dram[8]:        93        93        87        87        77        77        80        80        78        78        83        83        93        93        96        96 
dram[9]:        96        96        87        87        77        77        80        80        78        78        83        83        93        93        93        93 
dram[10]:        96        96        87        87        77        77        80        80        78        78        81        81        96        96        93        93 
total reads: 15120
bank skew: 96/77 = 1.25
chip skew: 1376/1374 = 1.00
average mf latency per bank:
dram[0]:       1546      1225      1692      1266      2006      1422      1467      1251      1625      1194      2376      1596      2050      1443      1631      1343
dram[1]:       1479      1178      1695      1268      2019      1421      1466      1222      1637      1210      2342      1603      2017      1416      1604      1327
dram[2]:       1517      1214      1684      1261      1993      1418      1469      1249      1621      1195      2327      1584      2032      1432      1615      1308
dram[3]:       1499      1206      1713      1287      2033      1444      1449      1222      1622      1201      2369      1651      2017      1421      1591      1308
dram[4]:       1509      1198      1713      1276      1958      1401      1477      1239      1629      1185      2376      1653      2031      1423      1602      1294
dram[5]:       1459      1201      1718      1288      1999      1424      1458      1246      1616      1180      2386      1651      2026      1412      1581      1295
dram[6]:       1453      1169      1720      1288      1955      1393      1465      1250      1633      1190      2375      1641      1998      1458      1621      1306
dram[7]:       1472      1204      1687      1266      1971      1418      1461      1227      1582      1130      2357      1603      1990      1448      1588      1314
dram[8]:       1449      1159      1783      1309      2002      1425      1497      1224      1583      1142      2342      1607      2009      1451      1618      1313
dram[9]:       1515      1208      1767      1284      1992      1427      1458      1216      1593      1127      2346      1600      2030      1438      1585      1308
dram[10]:       1502      1194      1768      1311      1992      1412      1483      1232      1602      1148      2436      1628      2002      1437      1609      1323
maximum mf latency per bank:
dram[0]:      11357     11071     10898     10728     10527     10192      9611      9523      9784      9442     12391     11982     12459     12069     11706     11388
dram[1]:      11359     10741     11096     10859     10363     10101      9818      9490      9978      9657     12370     11880     12502     12026     11745     11446
dram[2]:      11270     10946     10744     10533     10665     10301      9641      9456      9700      9469     12409     11999     12474     12074     11639     11346
dram[3]:      11916     11351     11179     10947     10236     10123      9840      9429     10061      9724     12354     11883     12387     11909     11657     11360
dram[4]:      11328     11216     10802     10317     10672     10184      9732      9435      9823      9386     12365     11953     12576     12107     11547     11249
dram[5]:      11698     11378     11251     10994     10191      9851      9623      9396     10030      9635     12372     11971     12540     11949     11533     11359
dram[6]:      10939     10646     11186     10838     10538     10078      9580      9364      9717      9295     12457     12047     12327     11837     11636     11229
dram[7]:      11689     11219     11209     11003      9999      9710      9640      9384      9584      9456     12446     12028     12091     11620     11708     11310
dram[8]:      11074     10497     10984     10759     10702     10241      9661      9329      9400      8914     12496     12103     12215     11831     11540     11213
dram[9]:      11178     10787     10937     10568     10599     10236      9752      9396      9764      9346     12429     11956     12090     11605     11662     11458
dram[10]:      11196     10921     11179     10845     10574     10242      9946      9626      9395      8925     12435     11953     12503     11873     11812     11321
Memory Partition 0: 
Cache L2_bank_000:
MSHR contents

Cache L2_bank_001:
MSHR contents
MSHR: tag=0xc03ef280, atomic=0 1 entries : 0x7fe0da4862d0 :  mf: uid=644086, sid05:w09, part=0, addr=0xc03ef280, load , size=128, unknown  status = IN_PARTITION_L2_FILL_QUEUE (291664), 

In Dram Latency Queue (total = 0): 
DRAM[0]: 16 bks, busW=4 BL=8 CL=12, tRRD=2 tCCD=6, tRCD=12 tRAS=28 tRP=12 tRC=40
n_cmd=129078 n_nop=111722 n_act=208 n_pre=192 n_req=4239 n_rd=11460 n_write=5496 bw_util=0.2627
n_activity=49256 dram_eff=0.6885
bk0: 760a 116426i bk1: 756a 116983i bk2: 736a 116028i bk3: 736a 117095i bk4: 692a 117407i bk5: 692a 117906i bk6: 692a 117136i bk7: 692a 116950i bk8: 664a 117332i bk9: 664a 118030i bk10: 648a 118053i bk11: 648a 118366i bk12: 768a 115855i bk13: 768a 115936i bk14: 772a 116737i bk15: 772a 116135i 
dram_util_bins: 0 0 0 0 0 0 0 0 0 0
dram_eff_bins: 0 0 0 0 0 0 0 0 0 0
mrqq: max=64 avg=9.0679
Memory Partition 1: 
Cache L2_bank_002:
MSHR contents

Cache L2_bank_003:
MSHR contents

In Dram Latency Queue (total = 0): 
DRAM[1]: 16 bks, busW=4 BL=8 CL=12, tRRD=2 tCCD=6, tRCD=12 tRAS=28 tRP=12 tRC=40
n_cmd=129078 n_nop=111718 n_act=210 n_pre=194 n_req=4239 n_rd=11460 n_write=5496 bw_util=0.2627
n_activity=49069 dram_eff=0.6911
bk0: 756a 116119i bk1: 756a 116465i bk2: 724a 115684i bk3: 724a 116718i bk4: 704a 116209i bk5: 704a 116897i bk6: 692a 116665i bk7: 692a 116601i bk8: 664a 117002i bk9: 664a 117168i bk10: 652a 117847i bk11: 652a 117924i bk12: 768a 115793i bk13: 768a 115811i bk14: 772a 116237i bk15: 768a 115748i 
dram_util_bins: 0 0 0 0 0 0 0 0 0 0
dram_eff_bins: 0 0 0 0 0 0 0 0 0 0
mrqq: max=64 avg=9.01388
Memory Partition 2: 
Cache L2_bank_004:
MSHR contents

Cache L2_bank_005:
MSHR contents

In Dram Latency Queue (total = 0): 
DRAM[2]: 16 bks, busW=4 BL=8 CL=12, tRRD=2 tCCD=6, tRCD=12 tRAS=28 tRP=12 tRC=40
n_cmd=129078 n_nop=111726 n_act=208 n_pre=192 n_req=4238 n_rd=11456 n_write=5496 bw_util=0.2627
n_activity=48576 dram_eff=0.698
bk0: 768a 116082i bk1: 768a 116679i bk2: 724a 116172i bk3: 724a 116829i bk4: 704a 116631i bk5: 704a 117263i bk6: 692a 116875i bk7: 692a 117142i bk8: 664a 117310i bk9: 664a 117804i bk10: 652a 117673i bk11: 652a 118202i bk12: 768a 115556i bk13: 768a 116076i bk14: 756a 116465i bk15: 756a 116410i 
dram_util_bins: 0 0 0 0 0 0 0 0 0 0
dram_eff_bins: 0 0 0 0 0 0 0 0 0 0
mrqq: max=64 avg=8.96732
Memory Partition 3: 
Cache L2_bank_006:
MSHR contents

Cache L2_bank_007:
MSHR contents

In Dram Latency Queue (total = 0): 
DRAM[3]: 16 bks, busW=4 BL=8 CL=12, tRRD=2 tCCD=6, tRCD=12 tRAS=28 tRP=12 tRC=40
n_cmd=129078 n_nop=111708 n_act=217 n_pre=201 n_req=4238 n_rd=11456 n_write=5496 bw_util=0.2627
n_activity=49169 dram_eff=0.6895
bk0: 768a 116342i bk1: 768a 116310i bk2: 724a 116297i bk3: 724a 117130i bk4: 704a 116530i bk5: 704a 117082i bk6: 692a 116679i bk7: 692a 116851i bk8: 664a 117435i bk9: 664a 117703i bk10: 652a 118037i bk11: 652a 117255i bk12: 768a 116051i bk13: 768a 116089i bk14: 756a 116594i bk15: 756a 116308i 
dram_util_bins: 0 0 0 0 0 0 0 0 0 0
dram_eff_bins: 0 0 0 0 0 0 0 0 0 0
mrqq: max=64 avg=8.96626
Memory Partition 4: 
Cache L2_bank_008:
MSHR contents

Cache L2_bank_009:
MSHR contents
MSHR: tag=0xc03ef680, atomic=0 1 entries : 0x7fe0d96fdb70 :  mf: uid=644088, sid05:w11, part=4, addr=0xc03ef680, load , size=128, unknown  status = IN_PARTITION_DRAM (291664), 

In Dram Latency Queue (total = 0): 
DRAM[4]: 16 bks, busW=4 BL=8 CL=12, tRRD=2 tCCD=6, tRCD=12 tRAS=28 tRP=12 tRC=40
n_cmd=129078 n_nop=111690 n_act=215 n_pre=199 n_req=4244 n_rd=11470 n_write=5504 bw_util=0.263
n_activity=49026 dram_eff=0.6924
bk0: 768a 116175i bk1: 768a 116754i bk2: 724a 115988i bk3: 722a 117148i bk4: 696a 117241i bk5: 696a 117579i bk6: 704a 116501i bk7: 704a 116935i bk8: 664a 117581i bk9: 664a 117912i bk10: 652a 117625i bk11: 652a 117293i bk12: 768a 115440i bk13: 768a 115795i bk14: 760a 116407i bk15: 760a 116813i 
dram_util_bins: 0 0 0 0 0 0 0 0 0 0
dram_eff_bins: 0 0 0 0 0 0 0 0 0 0
mrqq: max=64 avg=9.05642
Memory Partition 5: 
Cache L2_bank_010:
MSHR contents

Cache L2_bank_011:
MSHR contents

In Dram Latency Queue (total = 0): 
DRAM[5]: 16 bks, busW=4 BL=8 CL=12, tRRD=2 tCCD=6, tRCD=12 tRAS=28 tRP=12 tRC=40
n_cmd=129078 n_nop=111692 n_act=221 n_pre=205 n_req=4240 n_rd=11464 n_write=5496 bw_util=0.2628
n_activity=49071 dram_eff=0.6912
bk0: 756a 116609i bk1: 756a 116832i bk2: 732a 116625i bk3: 732a 117491i bk4: 696a 117050i bk5: 696a 117261i bk6: 704a 116760i bk7: 704a 116731i bk8: 664a 117131i bk9: 664a 117857i bk10: 652a 117838i bk11: 652a 117022i bk12: 768a 115738i bk13: 768a 115991i bk14: 760a 116497i bk15: 760a 116755i 
dram_util_bins: 0 0 0 0 0 0 0 0 0 0
dram_eff_bins: 0 0 0 0 0 0 0 0 0 0
mrqq: max=64 avg=8.95836
Memory Partition 6: 
Cache L2_bank_012:
MSHR contents

Cache L2_bank_013:
MSHR contents

In Dram Latency Queue (total = 0): 
DRAM[6]: 16 bks, busW=4 BL=8 CL=12, tRRD=2 tCCD=6, tRCD=12 tRAS=28 tRP=12 tRC=40
n_cmd=129078 n_nop=111698 n_act=218 n_pre=202 n_req=4240 n_rd=11464 n_write=5496 bw_util=0.2628
n_activity=49061 dram_eff=0.6914
bk0: 756a 116263i bk1: 756a 116931i bk2: 732a 115747i bk3: 732a 116926i bk4: 696a 117079i bk5: 696a 117577i bk6: 704a 116500i bk7: 704a 116599i bk8: 664a 116647i bk9: 664a 117185i bk10: 652a 117484i bk11: 652a 117293i bk12: 756a 115961i bk13: 756a 115896i bk14: 772a 116340i bk15: 772a 116100i 
dram_util_bins: 0 0 0 0 0 0 0 0 0 0
dram_eff_bins: 0 0 0 0 0 0 0 0 0 0
mrqq: max=64 avg=9.01734
Memory Partition 7: 
Cache L2_bank_014:
MSHR contents

Cache L2_bank_015:
MSHR contents

In Dram Latency Queue (total = 0): 
DRAM[7]: 16 bks, busW=4 BL=8 CL=12, tRRD=2 tCCD=6, tRCD=12 tRAS=28 tRP=12 tRC=40
n_cmd=129078 n_nop=111690 n_act=214 n_pre=198 n_req=4244 n_rd=11472 n_write=5504 bw_util=0.263
n_activity=49561 dram_eff=0.6851
bk0: 756a 116413i bk1: 756a 116946i bk2: 732a 116375i bk3: 732a 117440i bk4: 696a 117300i bk5: 696a 117479i bk6: 704a 116605i bk7: 704a 116770i bk8: 656a 117318i bk9: 656a 118100i bk10: 664a 117540i bk11: 664a 116962i bk12: 756a 115842i bk13: 756a 116001i bk14: 772a 116110i bk15: 772a 115957i 
dram_util_bins: 0 0 0 0 0 0 0 0 0 0
dram_eff_bins: 0 0 0 0 0 0 0 0 0 0
mrqq: max=64 avg=8.94641
Memory Partition 8: 
Cache L2_bank_016:
MSHR contents

Cache L2_bank_017:
MSHR contents

In Dram Latency Queue (total = 0): 
DRAM[8]: 16 bks, busW=4 BL=8 CL=12, tRRD=2 tCCD=6, tRCD=12 tRAS=28 tRP=12 tRC=40
n_cmd=129078 n_nop=111720 n_act=207 n_pre=191 n_req=4240 n_rd=11464 n_write=5496 bw_util=0.2628
n_activity=49761 dram_eff=0.6817
bk0: 756a 116571i bk1: 756a 117040i bk2: 732a 116018i bk3: 732a 116696i bk4: 692a 117046i bk5: 692a 117422i bk6: 704a 116816i bk7: 704a 116846i bk8: 656a 117542i bk9: 656a 117870i bk10: 664a 118034i bk11: 664a 117419i bk12: 756a 116168i bk13: 756a 115875i bk14: 772a 116530i bk15: 772a 116056i 
dram_util_bins: 0 0 0 0 0 0 0 0 0 0
dram_eff_bins: 0 0 0 0 0 0 0 0 0 0
mrqq: max=64 avg=9.03798
Memory Partition 9: 
Cache L2_bank_018:
MSHR contents

Cache L2_bank_019:
MSHR contents
MSHR: tag=0xc03ef080, atomic=0 1 entries : 0x7fe0d9c5bb20 :  mf: uid=644087, sid05:w08, part=9, addr=0xc03ef080, load , size=128, unknown  status = IN_PARTITION_DRAM (291659), 

In Dram Latency Queue (total = 0): 
DRAM[9]: 16 bks, busW=4 BL=8 CL=12, tRRD=2 tCCD=6, tRCD=12 tRAS=28 tRP=12 tRC=40
n_cmd=129078 n_nop=111722 n_act=210 n_pre=194 n_req=4238 n_rd=11456 n_write=5496 bw_util=0.2627
n_activity=49133 dram_eff=0.69
bk0: 768a 116161i bk1: 768a 116737i bk2: 732a 115738i bk3: 732a 117039i bk4: 692a 117219i bk5: 692a 117459i bk6: 704a 116482i bk7: 704a 117076i bk8: 652a 117373i bk9: 652a 118623i bk10: 664a 117500i bk11: 664a 117606i bk12: 756a 116085i bk13: 756a 116306i bk14: 760a 116574i bk15: 760a 115974i 
dram_util_bins: 0 0 0 0 0 0 0 0 0 0
dram_eff_bins: 0 0 0 0 0 0 0 0 0 0
mrqq: max=64 avg=9.01774
Memory Partition 10: 
Cache L2_bank_020:
MSHR contents

Cache L2_bank_021:
MSHR contents

In Dram Latency Queue (total = 0): 
DRAM[10]: 16 bks, busW=4 BL=8 CL=12, tRRD=2 tCCD=6, tRCD=12 tRAS=28 tRP=12 tRC=40
n_cmd=129078 n_nop=111720 n_act=203 n_pre=187 n_req=4242 n_rd=11464 n_write=5504 bw_util=0.2629
n_activity=49345 dram_eff=0.6877
bk0: 768a 115902i bk1: 768a 116084i bk2: 732a 116068i bk3: 732a 116555i bk4: 692a 116918i bk5: 692a 117213i bk6: 704a 116199i bk7: 704a 116505i bk8: 652a 117353i bk9: 652a 118482i bk10: 656a 117664i bk11: 656a 117868i bk12: 768a 115872i bk13: 768a 116286i bk14: 760a 116363i bk15: 760a 116254i 
dram_util_bins: 0 0 0 0 0 0 0 0 0 0
dram_eff_bins: 0 0 0 0 0 0 0 0 0 0
mrqq: max=64 avg=9.02075

========= L2 cache stats =========
L2_cache_bank[0]: Access = 2169, Miss = 1433, Miss_rate = 0.661, Pending_hits = 57, Reservation_fails = 0
L2_cache_bank[1]: Access = 2140, Miss = 1432, Miss_rate = 0.669, Pending_hits = 86, Reservation_fails = 1
L2_cache_bank[2]: Access = 2141, Miss = 1433, Miss_rate = 0.669, Pending_hits = 3, Reservation_fails = 4
L2_cache_bank[3]: Access = 2114, Miss = 1432, Miss_rate = 0.677, Pending_hits = 69, Reservation_fails = 0
L2_cache_bank[4]: Access = 2115, Miss = 1432, Miss_rate = 0.677, Pending_hits = 2, Reservation_fails = 0
L2_cache_bank[5]: Access = 2115, Miss = 1432, Miss_rate = 0.677, Pending_hits = 70, Reservation_fails = 4
L2_cache_bank[6]: Access = 2113, Miss = 1432, Miss_rate = 0.678, Pending_hits = 3, Reservation_fails = 0
L2_cache_bank[7]: Access = 2112, Miss = 1432, Miss_rate = 0.678, Pending_hits = 67, Reservation_fails = 0
L2_cache_bank[8]: Access = 2142, Miss = 1434, Miss_rate = 0.669, Pending_hits = 28, Reservation_fails = 1
L2_cache_bank[9]: Access = 2143, Miss = 1434, Miss_rate = 0.669, Pending_hits = 102, Reservation_fails = 0
L2_cache_bank[10]: Access = 2142, Miss = 1433, Miss_rate = 0.669, Pending_hits = 27, Reservation_fails = 0
L2_cache_bank[11]: Access = 2141, Miss = 1433, Miss_rate = 0.669, Pending_hits = 101, Reservation_fails = 0
L2_cache_bank[12]: Access = 2140, Miss = 1433, Miss_rate = 0.670, Pending_hits = 27, Reservation_fails = 2
L2_cache_bank[13]: Access = 2141, Miss = 1433, Miss_rate = 0.669, Pending_hits = 93, Reservation_fails = 0
L2_cache_bank[14]: Access = 2144, Miss = 1434, Miss_rate = 0.669, Pending_hits = 31, Reservation_fails = 0
L2_cache_bank[15]: Access = 2144, Miss = 1434, Miss_rate = 0.669, Pending_hits = 99, Reservation_fails = 0
L2_cache_bank[16]: Access = 2142, Miss = 1433, Miss_rate = 0.669, Pending_hits = 30, Reservation_fails = 0
L2_cache_bank[17]: Access = 2141, Miss = 1433, Miss_rate = 0.669, Pending_hits = 92, Reservation_fails = 0
L2_cache_bank[18]: Access = 2140, Miss = 1432, Miss_rate = 0.669, Pending_hits = 16, Reservation_fails = 0
L2_cache_bank[19]: Access = 2141, Miss = 1432, Miss_rate = 0.669, Pending_hits = 77, Reservation_fails = 0
L2_cache_bank[20]: Access = 2144, Miss = 1433, Miss_rate = 0.668, Pending_hits = 11, Reservation_fails = 2
L2_cache_bank[21]: Access = 2144, Miss = 1433, Miss_rate = 0.668, Pending_hits = 96, Reservation_fails = 0
L2_total_cache_accesses = 47008
L2_total_cache_misses = 31522
L2_total_cache_miss_rate = 0.6706
L2_total_cache_pending_hits = 1187
L2_total_cache_reservation_fails = 14
L2_total_cache_breakdown:
	L2_cache_stats_breakdown[GLOBAL_ACC_R][HIT] = 14206
	L2_cache_stats_breakdown[GLOBAL_ACC_R][HIT_RESERVED] = 794
	L2_cache_stats_breakdown[GLOBAL_ACC_R][MISS] = 16384
	L2_cache_stats_breakdown[GLOBAL_ACC_R][RESERVATION_FAIL] = 0
	L2_cache_stats_breakdown[LOCAL_ACC_R][HIT] = 0
	L2_cache_stats_breakdown[LOCAL_ACC_R][HIT_RESERVED] = 0
	L2_cache_stats_breakdown[LOCAL_ACC_R][MISS] = 0
	L2_cache_stats_breakdown[LOCAL_ACC_R][RESERVATION_FAIL] = 0
	L2_cache_stats_breakdown[CONST_ACC_R][HIT] = 0
	L2_cache_stats_breakdown[CONST_ACC_R][HIT_RESERVED] = 27
	L2_cache_stats_breakdown[CONST_ACC_R][MISS] = 1
	L2_cache_stats_breakdown[CONST_ACC_R][RESERVATION_FAIL] = 0
	L2_cache_stats_breakdown[TEXTURE_ACC_R][HIT] = 0
	L2_cache_stats_breakdown[TEXTURE_ACC_R][HIT_RESERVED] = 0
	L2_cache_stats_breakdown[TEXTURE_ACC_R][MISS] = 0
	L2_cache_stats_breakdown[TEXTURE_ACC_R][RESERVATION_FAIL] = 0
	L2_cache_stats_breakdown[GLOBAL_ACC_W][HIT] = 0
	L2_cache_stats_breakdown[GLOBAL_ACC_W][HIT_RESERVED] = 0
	L2_cache_stats_breakdown[GLOBAL_ACC_W][MISS] = 15120
	L2_cache_stats_breakdown[GLOBAL_ACC_W][RESERVATION_FAIL] = 14
	L2_cache_stats_breakdown[LOCAL_ACC_W][HIT] = 0
	L2_cache_stats_breakdown[LOCAL_ACC_W][HIT_RESERVED] = 0
	L2_cache_stats_breakdown[LOCAL_ACC_W][MISS] = 0
	L2_cache_stats_breakdown[LOCAL_ACC_W][RESERVATION_FAIL] = 0
	L2_cache_stats_breakdown[L1_WRBK_ACC][HIT] = 0
	L2_cache_stats_breakdown[L1_WRBK_ACC][HIT_RESERVED] = 0
	L2_cache_stats_breakdown[L1_WRBK_ACC][MISS] = 0
	L2_cache_stats_breakdown[L1_WRBK_ACC][RESERVATION_FAIL] = 0
	L2_cache_stats_breakdown[L2_WRBK_ACC][HIT] = 0
	L2_cache_stats_breakdown[L2_WRBK_ACC][HIT_RESERVED] = 0
	L2_cache_stats_breakdown[L2_WRBK_ACC][MISS] = 0
	L2_cache_stats_breakdown[L2_WRBK_ACC][RESERVATION_FAIL] = 0
	L2_cache_stats_breakdown[INST_ACC_R][HIT] = 93
	L2_cache_stats_breakdown[INST_ACC_R][HIT_RESERVED] = 366
	L2_cache_stats_breakdown[INST_ACC_R][MISS] = 17
	L2_cache_stats_breakdown[INST_ACC_R][RESERVATION_FAIL] = 0
	L2_cache_stats_breakdown[L1_WR_ALLOC_R][HIT] = 0
	L2_cache_stats_breakdown[L1_WR_ALLOC_R][HIT_RESERVED] = 0
	L2_cache_stats_breakdown[L1_WR_ALLOC_R][MISS] = 0
	L2_cache_stats_breakdown[L1_WR_ALLOC_R][RESERVATION_FAIL] = 0
	L2_cache_stats_breakdown[L2_WR_ALLOC_R][HIT] = 0
	L2_cache_stats_breakdown[L2_WR_ALLOC_R][HIT_RESERVED] = 0
	L2_cache_stats_breakdown[L2_WR_ALLOC_R][MISS] = 0
	L2_cache_stats_breakdown[L2_WR_ALLOC_R][RESERVATION_FAIL] = 0
	L2_cache_stats_breakdown[GLOBAL_ACC_R][TOTAL_ACCESS] = 31384
	L2_cache_stats_breakdown[CONST_ACC_R][TOTAL_ACCESS] = 28
	L2_cache_stats_breakdown[GLOBAL_ACC_W][TOTAL_ACCESS] = 15120
	L2_cache_stats_breakdown[INST_ACC_R][TOTAL_ACCESS] = 476
L2_cache_data_port_util = 0.025
L2_cache_fill_port_util = 0.082

icnt_total_pkts_mem_to_simt=151824
icnt_total_pkts_simt_to_mem=107488
LD_mem_lat_dist  0 0 0 0 0 0 0 0 0 0 0 0 0 0 0 0 0 0 0 0 0 0 0 0 0 0 0
ST_mem_lat_dist  0 0 0 0 0 0 0 0 0 0 0 0 0 0 0 0 0 0 0 0 0 0 0 0 0 0 0
----------------------------Interconnect-DETAILS--------------------------------
Class 0:
Packet latency average = 20.539
	minimum = 6
	maximum = 1810
Network latency average = 16.0654
	minimum = 6
	maximum = 1392
Slowest packet = 74209
Flit latency average = 16.7181
	minimum = 6
	maximum = 1388
Slowest flit = 206135
Fragmentation average = 0.527719
	minimum = 0
	maximum = 1285
Injected packet rate average = 0.0135247
	minimum = 0.0107172 (at node 0)
	maximum = 0.016011 (at node 3)
Accepted packet rate average = 0.0135247
	minimum = 0.0107172 (at node 0)
	maximum = 0.016011 (at node 3)
Injected flit rate average = 0.0373033
	minimum = 0.0245273 (at node 0)
	maximum = 0.0504139 (at node 28)
Accepted flit rate average= 0.0373033
	minimum = 0.0345827 (at node 0)
	maximum = 0.0515576 (at node 3)
Injected packet length average = 2.75817
Accepted packet length average = 2.75817
Total in-flight flits = 0 (0 measured)
====== Overall Traffic Statistics ======
====== Traffic class 0 ======
Packet latency average = 20.539 (1 samples)
	minimum = 6 (1 samples)
	maximum = 1810 (1 samples)
Network latency average = 16.0654 (1 samples)
	minimum = 6 (1 samples)
	maximum = 1392 (1 samples)
Flit latency average = 16.7181 (1 samples)
	minimum = 6 (1 samples)
	maximum = 1388 (1 samples)
Fragmentation average = 0.527719 (1 samples)
	minimum = 0 (1 samples)
	maximum = 1285 (1 samples)
Injected packet rate average = 0.0135247 (1 samples)
	minimum = 0.0107172 (1 samples)
	maximum = 0.016011 (1 samples)
Accepted packet rate average = 0.0135247 (1 samples)
	minimum = 0.0107172 (1 samples)
	maximum = 0.016011 (1 samples)
Injected flit rate average = 0.0373033 (1 samples)
	minimum = 0.0245273 (1 samples)
	maximum = 0.0504139 (1 samples)
Accepted flit rate average = 0.0373033 (1 samples)
	minimum = 0.0345827 (1 samples)
	maximum = 0.0515576 (1 samples)
Injected packet size average = 2.75817 (1 samples)
Accepted packet size average = 2.75817 (1 samples)
Hops average = 1 (1 samples)
----------------------------END-of-Interconnect-DETAILS-------------------------


gpgpu_simulation_time = 0 days, 0 hrs, 4 min, 1 sec (241 sec)
gpgpu_simulation_rate = 119704 (inst/sec)
gpgpu_simulation_rate = 1210 (cycle/sec)
GPGPU-Sim uArch: Shader 9 bind to kernel 2 '_Z24block2D_hybrid_coarsen_xffPfS_iii'
GPGPU-Sim uArch: Shader 10 bind to kernel 2 '_Z24block2D_hybrid_coarsen_xffPfS_iii'
GPGPU-Sim uArch: Shader 11 bind to kernel 2 '_Z24block2D_hybrid_coarsen_xffPfS_iii'
GPGPU-Sim uArch: Shader 12 bind to kernel 2 '_Z24block2D_hybrid_coarsen_xffPfS_iii'
GPGPU-Sim uArch: Shader 13 bind to kernel 2 '_Z24block2D_hybrid_coarsen_xffPfS_iii'
GPGPU-Sim uArch: Shader 14 bind to kernel 2 '_Z24block2D_hybrid_coarsen_xffPfS_iii'
GPGPU-Sim uArch: Shader 15 bind to kernel 2 '_Z24block2D_hybrid_coarsen_xffPfS_iii'
GPGPU-Sim uArch: Shader 16 bind to kernel 2 '_Z24block2D_hybrid_coarsen_xffPfS_iii'
GPGPU-Sim uArch: Shader 17 bind to kernel 2 '_Z24block2D_hybrid_coarsen_xffPfS_iii'
GPGPU-Sim uArch: Shader 18 bind to kernel 2 '_Z24block2D_hybrid_coarsen_xffPfS_iii'
GPGPU-Sim uArch: Shader 19 bind to kernel 2 '_Z24block2D_hybrid_coarsen_xffPfS_iii'
GPGPU-Sim uArch: Shader 20 bind to kernel 2 '_Z24block2D_hybrid_coarsen_xffPfS_iii'
GPGPU-Sim uArch: Shader 21 bind to kernel 2 '_Z24block2D_hybrid_coarsen_xffPfS_iii'
GPGPU-Sim uArch: Shader 22 bind to kernel 2 '_Z24block2D_hybrid_coarsen_xffPfS_iii'
GPGPU-Sim uArch: Shader 23 bind to kernel 2 '_Z24block2D_hybrid_coarsen_xffPfS_iii'
GPGPU-Sim uArch: Shader 24 bind to kernel 2 '_Z24block2D_hybrid_coarsen_xffPfS_iii'
GPGPU-Sim uArch: Shader 25 bind to kernel 2 '_Z24block2D_hybrid_coarsen_xffPfS_iii'
GPGPU-Sim uArch: Shader 26 bind to kernel 2 '_Z24block2D_hybrid_coarsen_xffPfS_iii'
GPGPU-Sim uArch: Shader 27 bind to kernel 2 '_Z24block2D_hybrid_coarsen_xffPfS_iii'
GPGPU-Sim uArch: Shader 0 bind to kernel 2 '_Z24block2D_hybrid_coarsen_xffPfS_iii'
GPGPU-Sim uArch: Shader 1 bind to kernel 2 '_Z24block2D_hybrid_coarsen_xffPfS_iii'
GPGPU-Sim uArch: Shader 2 bind to kernel 2 '_Z24block2D_hybrid_coarsen_xffPfS_iii'
GPGPU-Sim uArch: Shader 3 bind to kernel 2 '_Z24block2D_hybrid_coarsen_xffPfS_iii'
GPGPU-Sim uArch: Shader 4 bind to kernel 2 '_Z24block2D_hybrid_coarsen_xffPfS_iii'
GPGPU-Sim uArch: Shader 5 bind to kernel 2 '_Z24block2D_hybrid_coarsen_xffPfS_iii'
GPGPU-Sim uArch: Shader 6 bind to kernel 2 '_Z24block2D_hybrid_coarsen_xffPfS_iii'
GPGPU-Sim uArch: Shader 7 bind to kernel 2 '_Z24block2D_hybrid_coarsen_xffPfS_iii'
GPGPU-Sim uArch: Shader 8 bind to kernel 2 '_Z24block2D_hybrid_coarsen_xffPfS_iii'
Destroy streams for kernel 2: size 0
kernel_name = _Z24block2D_hybrid_coarsen_xffPfS_iii 
kernel_launch_uid = 2 
gpu_sim_cycle = 41643
gpu_sim_insn = 28848876
gpu_ipc =     692.7665
gpu_tot_sim_cycle = 555458
gpu_tot_sim_insn = 57697752
gpu_tot_ipc =     103.8742
gpu_tot_issued_cta = 128
max_total_param_size = 0
gpu_stall_dramfull = 63666
gpu_stall_icnt2sh    = 3417
partiton_reqs_in_parallel = 916146
partiton_reqs_in_parallel_total    = 1465664
partiton_level_parallism =      22.0000
partiton_level_parallism_total  =       4.2880
partiton_reqs_in_parallel_util = 916146
partiton_reqs_in_parallel_util_total    = 1465664
gpu_sim_cycle_parition_util = 41643
gpu_tot_sim_cycle_parition_util    = 68572
partiton_level_parallism_util =      22.0000
partiton_level_parallism_util_total  =      21.6106
partiton_replys_in_parallel = 46504
partiton_replys_in_parallel_total    = 47008
L2_BW  =     105.8482 GB/Sec
L2_BW_total  =      15.9570 GB/Sec
gpu_total_sim_rate=134807

========= Core cache stats =========
L1I_cache:
	L1I_total_cache_accesses = 1158456
	L1I_total_cache_misses = 3568
	L1I_total_cache_miss_rate = 0.0031
	L1I_total_cache_pending_hits = 0
	L1I_total_cache_reservation_fails = 0
L1D_cache:
	L1D_cache_core[0]: Access = 0, Miss = 0, Miss_rate = -nan, Pending_hits = 0, Reservation_fails = 0
	L1D_cache_core[1]: Access = 0, Miss = 0, Miss_rate = -nan, Pending_hits = 0, Reservation_fails = 0
	L1D_cache_core[2]: Access = 0, Miss = 0, Miss_rate = -nan, Pending_hits = 0, Reservation_fails = 0
	L1D_cache_core[3]: Access = 0, Miss = 0, Miss_rate = -nan, Pending_hits = 0, Reservation_fails = 0
	L1D_cache_core[4]: Access = 0, Miss = 0, Miss_rate = -nan, Pending_hits = 0, Reservation_fails = 0
	L1D_cache_core[5]: Access = 0, Miss = 0, Miss_rate = -nan, Pending_hits = 0, Reservation_fails = 0
	L1D_cache_core[6]: Access = 0, Miss = 0, Miss_rate = -nan, Pending_hits = 0, Reservation_fails = 0
	L1D_cache_core[7]: Access = 0, Miss = 0, Miss_rate = -nan, Pending_hits = 0, Reservation_fails = 0
	L1D_cache_core[8]: Access = 0, Miss = 0, Miss_rate = -nan, Pending_hits = 0, Reservation_fails = 0
	L1D_cache_core[9]: Access = 0, Miss = 0, Miss_rate = -nan, Pending_hits = 0, Reservation_fails = 0
	L1D_cache_core[10]: Access = 0, Miss = 0, Miss_rate = -nan, Pending_hits = 0, Reservation_fails = 0
	L1D_cache_core[11]: Access = 0, Miss = 0, Miss_rate = -nan, Pending_hits = 0, Reservation_fails = 0
	L1D_cache_core[12]: Access = 0, Miss = 0, Miss_rate = -nan, Pending_hits = 0, Reservation_fails = 0
	L1D_cache_core[13]: Access = 0, Miss = 0, Miss_rate = -nan, Pending_hits = 0, Reservation_fails = 0
	L1D_cache_core[14]: Access = 0, Miss = 0, Miss_rate = -nan, Pending_hits = 0, Reservation_fails = 0
	L1D_cache_core[15]: Access = 0, Miss = 0, Miss_rate = -nan, Pending_hits = 0, Reservation_fails = 0
	L1D_cache_core[16]: Access = 0, Miss = 0, Miss_rate = -nan, Pending_hits = 0, Reservation_fails = 0
	L1D_cache_core[17]: Access = 0, Miss = 0, Miss_rate = -nan, Pending_hits = 0, Reservation_fails = 0
	L1D_cache_core[18]: Access = 0, Miss = 0, Miss_rate = -nan, Pending_hits = 0, Reservation_fails = 0
	L1D_cache_core[19]: Access = 0, Miss = 0, Miss_rate = -nan, Pending_hits = 0, Reservation_fails = 0
	L1D_cache_core[20]: Access = 0, Miss = 0, Miss_rate = -nan, Pending_hits = 0, Reservation_fails = 0
	L1D_cache_core[21]: Access = 0, Miss = 0, Miss_rate = -nan, Pending_hits = 0, Reservation_fails = 0
	L1D_cache_core[22]: Access = 0, Miss = 0, Miss_rate = -nan, Pending_hits = 0, Reservation_fails = 0
	L1D_cache_core[23]: Access = 0, Miss = 0, Miss_rate = -nan, Pending_hits = 0, Reservation_fails = 0
	L1D_cache_core[24]: Access = 0, Miss = 0, Miss_rate = -nan, Pending_hits = 0, Reservation_fails = 0
	L1D_cache_core[25]: Access = 0, Miss = 0, Miss_rate = -nan, Pending_hits = 0, Reservation_fails = 0
	L1D_cache_core[26]: Access = 0, Miss = 0, Miss_rate = -nan, Pending_hits = 0, Reservation_fails = 0
	L1D_cache_core[27]: Access = 0, Miss = 0, Miss_rate = -nan, Pending_hits = 0, Reservation_fails = 0
	L1D_total_cache_accesses = 0
	L1D_total_cache_misses = 0
	L1D_total_cache_pending_hits = 0
	L1D_total_cache_reservation_fails = 0
	L1D_cache_data_port_util = 0.000
	L1D_cache_fill_port_util = 0.000
L1C_cache:
	L1C_total_cache_accesses = 3584
	L1C_total_cache_misses = 1632
	L1C_total_cache_miss_rate = 0.4554
	L1C_total_cache_pending_hits = 0
	L1C_total_cache_reservation_fails = 1444
L1T_cache:
[...]
	minimum = 6
	maximum = 48
Network latency average = 8.38552
	minimum = 6
	maximum = 46
Slowest packet = 3693998
Flit latency average = 6.84172
	minimum = 6
	maximum = 43
Slowest flit = 10181411
Fragmentation average = 0
	minimum = 0
	maximum = 0
Injected packet rate average = 0.0237605
	minimum = 0.0188024 (at node 0)
	maximum = 0.0282036 (at node 7)
Accepted packet rate average = 0.0237605
	minimum = 0.0188024 (at node 0)
	maximum = 0.0282036 (at node 7)
Injected flit rate average = 0.0654874
	minimum = 0.0433272 (at node 0)
	maximum = 0.0868077 (at node 42)
Accepted flit rate average= 0.0654874
	minimum = 0.0602902 (at node 0)
	maximum = 0.0904353 (at node 7)
Injected packet length average = 2.75615
Accepted packet length average = 2.75615
Total in-flight flits = 0 (0 measured)
====== Overall Traffic Statistics ======
====== Traffic class 0 ======
Packet latency average = 8.86607 (40 samples)
	minimum = 6 (40 samples)
	maximum = 91.075 (40 samples)
Network latency average = 8.62333 (40 samples)
	minimum = 6 (40 samples)
	maximum = 77.875 (40 samples)
Flit latency average = 7.14158 (40 samples)
	minimum = 6 (40 samples)
	maximum = 74.325 (40 samples)
Fragmentation average = 0.013193 (40 samples)
	minimum = 0 (40 samples)
	maximum = 32.125 (40 samples)
Injected packet rate average = 0.023322 (40 samples)
	minimum = 0.0184557 (40 samples)
	maximum = 0.027682 (40 samples)
Accepted packet rate average = 0.023322 (40 samples)
	minimum = 0.0184557 (40 samples)
	maximum = 0.027682 (40 samples)
Injected flit rate average = 0.0642796 (40 samples)
	minimum = 0.0425242 (40 samples)
	maximum = 0.0852307 (40 samples)
Accepted flit rate average = 0.0642796 (40 samples)
	minimum = 0.0591842 (40 samples)
	maximum = 0.0887684 (40 samples)
Injected packet size average = 2.75618 (40 samples)
Accepted packet size average = 2.75618 (40 samples)
Hops average = 1 (40 samples)
----------------------------END-of-Interconnect-DETAILS-------------------------


gpgpu_simulation_time = 0 days, 1 hrs, 12 min, 6 sec (4326 sec)
gpgpu_simulation_rate = 266748 (inst/sec)
gpgpu_simulation_rate = 2426 (cycle/sec)
========================================UVM statistics==============================
========================================TLB statistics(access)==============================
Shader0: Tlb_access: 66226 Tlb_hit: 62770 Tlb_miss: 3456 Tlb_hit_rate: 0.947815
Shader1: Tlb_access: 66812 Tlb_hit: 63168 Tlb_miss: 3644 Tlb_hit_rate: 0.945459
Shader2: Tlb_access: 66812 Tlb_hit: 63107 Tlb_miss: 3705 Tlb_hit_rate: 0.944546
Shader3: Tlb_access: 66812 Tlb_hit: 63299 Tlb_miss: 3513 Tlb_hit_rate: 0.947420
Shader4: Tlb_access: 66812 Tlb_hit: 63274 Tlb_miss: 3538 Tlb_hit_rate: 0.947045
Shader5: Tlb_access: 66812 Tlb_hit: 63245 Tlb_miss: 3567 Tlb_hit_rate: 0.946611
Shader6: Tlb_access: 66812 Tlb_hit: 63186 Tlb_miss: 3626 Tlb_hit_rate: 0.945728
Shader7: Tlb_access: 66812 Tlb_hit: 63257 Tlb_miss: 3555 Tlb_hit_rate: 0.946791
Shader8: Tlb_access: 66812 Tlb_hit: 63272 Tlb_miss: 3540 Tlb_hit_rate: 0.947016
Shader9: Tlb_access: 66812 Tlb_hit: 63209 Tlb_miss: 3603 Tlb_hit_rate: 0.946073
Shader10: Tlb_access: 66812 Tlb_hit: 63151 Tlb_miss: 3661 Tlb_hit_rate: 0.945204
Shader11: Tlb_access: 66812 Tlb_hit: 63363 Tlb_miss: 3449 Tlb_hit_rate: 0.948378
Shader12: Tlb_access: 66812 Tlb_hit: 63358 Tlb_miss: 3454 Tlb_hit_rate: 0.948303
Shader13: Tlb_access: 66226 Tlb_hit: 62730 Tlb_miss: 3496 Tlb_hit_rate: 0.947211
Shader14: Tlb_access: 66226 Tlb_hit: 62680 Tlb_miss: 3546 Tlb_hit_rate: 0.946456
Shader15: Tlb_access: 66076 Tlb_hit: 62567 Tlb_miss: 3509 Tlb_hit_rate: 0.946894
Shader16: Tlb_access: 66076 Tlb_hit: 62579 Tlb_miss: 3497 Tlb_hit_rate: 0.947076
Shader17: Tlb_access: 66076 Tlb_hit: 62465 Tlb_miss: 3611 Tlb_hit_rate: 0.945351
Shader18: Tlb_access: 66076 Tlb_hit: 62408 Tlb_miss: 3668 Tlb_hit_rate: 0.944488
Shader19: Tlb_access: 66226 Tlb_hit: 62776 Tlb_miss: 3450 Tlb_hit_rate: 0.947906
Shader20: Tlb_access: 66226 Tlb_hit: 62756 Tlb_miss: 3470 Tlb_hit_rate: 0.947604
Shader21: Tlb_access: 66226 Tlb_hit: 62725 Tlb_miss: 3501 Tlb_hit_rate: 0.947136
Shader22: Tlb_access: 66226 Tlb_hit: 62666 Tlb_miss: 3560 Tlb_hit_rate: 0.946245
Shader23: Tlb_access: 66076 Tlb_hit: 62588 Tlb_miss: 3488 Tlb_hit_rate: 0.947212
Shader24: Tlb_access: 66076 Tlb_hit: 62589 Tlb_miss: 3487 Tlb_hit_rate: 0.947227
Shader25: Tlb_access: 66076 Tlb_hit: 62469 Tlb_miss: 3607 Tlb_hit_rate: 0.945411
Shader26: Tlb_access: 66076 Tlb_hit: 62407 Tlb_miss: 3669 Tlb_hit_rate: 0.944473
Shader27: Tlb_access: 66226 Tlb_hit: 62765 Tlb_miss: 3461 Tlb_hit_rate: 0.947740
Tlb_tot_access: 1860160 Tlb_tot_hit: 1760829, Tlb_tot_miss: 99331, Tlb_tot_hit_rate: 0.946601
========================================TLB statistics(validate)==============================
Shader0: Tlb_validate: 1024 Tlb_invalidate: 960 Tlb_evict: 0 Tlb_page_evict: 960
Shader1: Tlb_validate: 1024 Tlb_invalidate: 960 Tlb_evict: 0 Tlb_page_evict: 960
Shader2: Tlb_validate: 1024 Tlb_invalidate: 960 Tlb_evict: 0 Tlb_page_evict: 960
Shader3: Tlb_validate: 1024 Tlb_invalidate: 960 Tlb_evict: 0 Tlb_page_evict: 960
Shader4: Tlb_validate: 1024 Tlb_invalidate: 960 Tlb_evict: 0 Tlb_page_evict: 960
Shader5: Tlb_validate: 1024 Tlb_invalidate: 960 Tlb_evict: 0 Tlb_page_evict: 960
Shader6: Tlb_validate: 1024 Tlb_invalidate: 960 Tlb_evict: 0 Tlb_page_evict: 960
Shader7: Tlb_validate: 1024 Tlb_invalidate: 960 Tlb_evict: 0 Tlb_page_evict: 960
Shader8: Tlb_validate: 1024 Tlb_invalidate: 960 Tlb_evict: 0 Tlb_page_evict: 960
Shader9: Tlb_validate: 1024 Tlb_invalidate: 960 Tlb_evict: 0 Tlb_page_evict: 960
Shader10: Tlb_validate: 1024 Tlb_invalidate: 960 Tlb_evict: 0 Tlb_page_evict: 960
Shader11: Tlb_validate: 1024 Tlb_invalidate: 960 Tlb_evict: 0 Tlb_page_evict: 960
Shader12: Tlb_validate: 1024 Tlb_invalidate: 960 Tlb_evict: 0 Tlb_page_evict: 960
Shader13: Tlb_validate: 1024 Tlb_invalidate: 960 Tlb_evict: 0 Tlb_page_evict: 960
Shader14: Tlb_validate: 1024 Tlb_invalidate: 960 Tlb_evict: 0 Tlb_page_evict: 960
Shader15: Tlb_validate: 1024 Tlb_invalidate: 960 Tlb_evict: 0 Tlb_page_evict: 960
Shader16: Tlb_validate: 1024 Tlb_invalidate: 960 Tlb_evict: 0 Tlb_page_evict: 960
Shader17: Tlb_validate: 1024 Tlb_invalidate: 960 Tlb_evict: 0 Tlb_page_evict: 960
Shader18: Tlb_validate: 1024 Tlb_invalidate: 960 Tlb_evict: 0 Tlb_page_evict: 960
Shader19: Tlb_validate: 1024 Tlb_invalidate: 960 Tlb_evict: 0 Tlb_page_evict: 960
Shader20: Tlb_validate: 1024 Tlb_invalidate: 960 Tlb_evict: 0 Tlb_page_evict: 960
Shader21: Tlb_validate: 1024 Tlb_invalidate: 960 Tlb_evict: 0 Tlb_page_evict: 960
Shader22: Tlb_validate: 1024 Tlb_invalidate: 960 Tlb_evict: 0 Tlb_page_evict: 960
Shader23: Tlb_validate: 1024 Tlb_invalidate: 960 Tlb_evict: 0 Tlb_page_evict: 960
Shader24: Tlb_validate: 1024 Tlb_invalidate: 960 Tlb_evict: 0 Tlb_page_evict: 960
Shader25: Tlb_validate: 1024 Tlb_invalidate: 960 Tlb_evict: 0 Tlb_page_evict: 960
Shader26: Tlb_validate: 1024 Tlb_invalidate: 960 Tlb_evict: 0 Tlb_page_evict: 960
Shader27: Tlb_validate: 1024 Tlb_invalidate: 960 Tlb_evict: 0 Tlb_page_evict: 960
Tlb_tot_valiate: 28672 Tlb_invalidate: 26880, Tlb_tot_evict: 0, Tlb_tot_evict page: 26880
========================================TLB statistics(threshing)==============================
Shader0: Total 0
Shader1: Total 0
Shader2: Total 0
Shader3: Total 0
Shader4: Total 0
Shader5: Total 0
Shader6: Total 0
Shader7: Total 0
Shader8: Total 0
Shader9: Total 0
Shader10: Total 0
Shader11: Total 0
Shader12: Total 0
Shader13: Total 0
Shader14: Total 0
Shader15: Total 0
Shader16: Total 0
Shader17: Total 0
Shader18: Total 0
Shader19: Total 0
Shader20: Total 0
Shader21: Total 0
Shader22: Total 0
Shader23: Total 0
Shader24: Total 0
Shader25: Total 0
Shader26: Total 0
Shader27: Total 0
Tlb_tot_thresh: 0
========================================Page fault statistics==============================
Shader0: Page_table_access:3456 Page_hit: 3088 Page_miss: 368 Page_hit_rate: 0.893519 Page_fault: 1 Page_pending: 366
Shader1: Page_table_access:3644 Page_hit: 3169 Page_miss: 475 Page_hit_rate: 0.869649 Page_fault: 0 Page_pending: 474
Shader2: Page_table_access:3705 Page_hit: 3182 Page_miss: 523 Page_hit_rate: 0.858839 Page_fault: 5 Page_pending: 516
Shader3: Page_table_access:3513 Page_hit: 3003 Page_miss: 510 Page_hit_rate: 0.854825 Page_fault: 0 Page_pending: 509
Shader4: Page_table_access:3538 Page_hit: 2987 Page_miss: 551 Page_hit_rate: 0.844262 Page_fault: 1 Page_pending: 552
Shader5: Page_table_access:3567 Page_hit: 3078 Page_miss: 489 Page_hit_rate: 0.862910 Page_fault: 0 Page_pending: 489
Shader6: Page_table_access:3626 Page_hit: 3095 Page_miss: 531 Page_hit_rate: 0.853558 Page_fault: 0 Page_pending: 531
Shader7: Page_table_access:3555 Page_hit: 3092 Page_miss: 463 Page_hit_rate: 0.869761 Page_fault: 1 Page_pending: 462
Shader8: Page_table_access:3540 Page_hit: 3040 Page_miss: 500 Page_hit_rate: 0.858757 Page_fault: 0 Page_pending: 500
Shader9: Page_table_access:3603 Page_hit: 3261 Page_miss: 342 Page_hit_rate: 0.905079 Page_fault: 0 Page_pending: 342
Shader10: Page_table_access:3661 Page_hit: 3293 Page_miss: 368 Page_hit_rate: 0.899481 Page_fault: 1 Page_pending: 367
Shader11: Page_table_access:3449 Page_hit: 3106 Page_miss: 343 Page_hit_rate: 0.900551 Page_fault: 0 Page_pending: 343
Shader12: Page_table_access:3454 Page_hit: 3086 Page_miss: 368 Page_hit_rate: 0.893457 Page_fault: 0 Page_pending: 368
Shader13: Page_table_access:3496 Page_hit: 3154 Page_miss: 342 Page_hit_rate: 0.902174 Page_fault: 1 Page_pending: 342
Shader14: Page_table_access:3546 Page_hit: 3178 Page_miss: 368 Page_hit_rate: 0.896221 Page_fault: 0 Page_pending: 368
Shader15: Page_table_access:3509 Page_hit: 3169 Page_miss: 340 Page_hit_rate: 0.903106 Page_fault: 1 Page_pending: 340
Shader16: Page_table_access:3497 Page_hit: 3129 Page_miss: 368 Page_hit_rate: 0.894767 Page_fault: 0 Page_pending: 368
Shader17: Page_table_access:3611 Page_hit: 3271 Page_miss: 340 Page_hit_rate: 0.905843 Page_fault: 0 Page_pending: 340
Shader18: Page_table_access:3668 Page_hit: 3300 Page_miss: 368 Page_hit_rate: 0.899673 Page_fault: 0 Page_pending: 368
Shader19: Page_table_access:3450 Page_hit: 3110 Page_miss: 340 Page_hit_rate: 0.901449 Page_fault: 0 Page_pending: 340
Shader20: Page_table_access:3470 Page_hit: 3102 Page_miss: 368 Page_hit_rate: 0.893948 Page_fault: 0 Page_pending: 368
Shader21: Page_table_access:3501 Page_hit: 3161 Page_miss: 340 Page_hit_rate: 0.902885 Page_fault: 0 Page_pending: 340
Shader22: Page_table_access:3560 Page_hit: 3192 Page_miss: 368 Page_hit_rate: 0.896629 Page_fault: 0 Page_pending: 368
Shader23: Page_table_access:3488 Page_hit: 3148 Page_miss: 340 Page_hit_rate: 0.902523 Page_fault: 0 Page_pending: 340
Shader24: Page_table_access:3487 Page_hit: 3119 Page_miss: 368 Page_hit_rate: 0.894465 Page_fault: 0 Page_pending: 368
Shader25: Page_table_access:3607 Page_hit: 3267 Page_miss: 340 Page_hit_rate: 0.905739 Page_fault: 0 Page_pending: 340
Shader26: Page_table_access:3669 Page_hit: 3301 Page_miss: 368 Page_hit_rate: 0.899700 Page_fault: 0 Page_pending: 368
Shader27: Page_table_access:3461 Page_hit: 3121 Page_miss: 340 Page_hit_rate: 0.901762 Page_fault: 1 Page_pending: 340
Page_talbe_tot_access: 99331 Page_tot_hit: 88202, Page_tot_miss 11129, Page_tot_hit_rate: 0.887960 Page_tot_fault: 12 Page_tot_pending: 11117
Total_memory_access_page_fault: 12, Average_latency: 237587.437500
========================================Page threshing statistics==============================
Page_validate: 1024 Page_evict_diry: 0 Page_evict_not_diry: 0
Page_tot_thresh: 0
========================================Memory access statistics==============================
========================================Prefetch statistics==============================
Tot_page_hit: 0, Tot_page_miss: 0, Tot_page_fault: 0
Avg_page_latency: 0.000000, Avg_prefetch_size: -nan, Avg_prefetch_latency: 0.000000
========================================Rdma statistics==============================
Rdma_read: 0
Rdma_migration_read 0
Rdma_migration_write 0
========================================PCI-e statistics==============================
Pcie_read_utilization: 6.962113
[0-25]: 0.000000, [26-50]: 0.000000, [51-75]: 0.000000, [76-100]: 1.000000
Pcie_write_utilization: 0.000000
[0-25]: -nan, [26-50]: -nan, [51-75]: -nan, [76-100]: -nan
F:   222150----T:   291665 	 	 	 Kl: 1 	 Sm: 0 	 T: kernel_launch(46.937881)
F:   223546----T:   224010 	 St: c0000000 Sz: 28672 	 Sm: 0 	 T: memcpy_h2d(0.313302)
F:   224010----T:   224561 	 St: c0007000 Sz: 36864 	 Sm: 0 	 T: memcpy_h2d(0.372046)
F:   224561----T:   225025 	 St: c0010000 Sz: 28672 	 Sm: 0 	 T: memcpy_h2d(0.313302)
F:   225025----T:   225576 	 St: c0017000 Sz: 36864 	 Sm: 0 	 T: memcpy_h2d(0.372046)
F:   226678----T:   227274 	 St: c0020000 Sz: 40960 	 Sm: 0 	 T: memcpy_h2d(0.402431)
F:   227274----T:   228422 	 St: c002a000 Sz: 90112 	 Sm: 0 	 T: memcpy_h2d(0.775152)
F:   228422----T:   228702 	 St: c0210000 Sz: 8192 	 Sm: 0 	 T: memcpy_h2d(0.189061)
F:   228702----T:   229480 	 St: c0212000 Sz: 57344 	 Sm: 0 	 T: memcpy_h2d(0.525321)
F:   230250----T:   230510 	 St: c0220000 Sz: 4096 	 Sm: 0 	 T: memcpy_h2d(0.175557)
F:   230510----T:   231334 	 St: c0221000 Sz: 61440 	 Sm: 0 	 T: memcpy_h2d(0.556381)
F:   231334----T:   231594 	 St: c0040000 Sz: 4096 	 Sm: 0 	 T: memcpy_h2d(0.175557)
F:   231594----T:   234666 	 St: c0041000 Sz: 258048 	 Sm: 0 	 T: memcpy_h2d(2.074274)
F:   234666----T:   234926 	 St: c0230000 Sz: 4096 	 Sm: 0 	 T: memcpy_h2d(0.175557)
F:   234926----T:   236495 	 St: c0231000 Sz: 126976 	 Sm: 0 	 T: memcpy_h2d(1.059419)
F:   236495----T:   236755 	 St: c0250000 Sz: 4096 	 Sm: 0 	 T: memcpy_h2d(0.175557)
F:   236755----T:   239827 	 St: c0251000 Sz: 258048 	 Sm: 0 	 T: memcpy_h2d(2.074274)
F:   239827----T:   240087 	 St: c0080000 Sz: 4096 	 Sm: 0 	 T: memcpy_h2d(0.175557)
F:   240087----T:   246170 	 St: c0081000 Sz: 520192 	 Sm: 0 	 T: memcpy_h2d(4.107360)
F:   247899----T:   248159 	 St: c0290000 Sz: 4096 	 Sm: 0 	 T: memcpy_h2d(0.175557)
F:   248159----T:   254242 	 St: c0291000 Sz: 520192 	 Sm: 0 	 T: memcpy_h2d(4.107360)
F:   254242----T:   254502 	 St: c0100000 Sz: 4096 	 Sm: 0 	 T: memcpy_h2d(0.175557)
F:   254502----T:   266610 	 St: c0101000 Sz: 1044480 	 Sm: 0 	 T: memcpy_h2d(8.175557)
F:   268375----T:   269245 	 St: c0200000 Sz: 65536 	 Sm: 0 	 T: memcpy_h2d(0.587441)
F:   269245----T:   269505 	 St: c0310000 Sz: 4096 	 Sm: 0 	 T: memcpy_h2d(0.175557)
F:   269505----T:   280860 	 St: c0311000 Sz: 978944 	 Sm: 0 	 T: memcpy_h2d(7.667117)
F:   513815----T:   555458 	 	 	 Kl: 2 	 Sm: 0 	 T: kernel_launch(28.118164)
F:   777608----T:   818988 	 	 	 Kl: 3 	 Sm: 0 	 T: kernel_launch(27.940580)
F:  1041138----T:  1082861 	 	 	 Kl: 4 	 Sm: 0 	 T: kernel_launch(28.172180)
F:  1305011----T:  1346563 	 	 	 Kl: 5 	 Sm: 0 	 T: kernel_launch(28.056719)
F:  1568713----T:  1610352 	 	 	 Kl: 6 	 Sm: 0 	 T: kernel_launch(28.115463)
F:  1832502----T:  1873970 	 	 	 Kl: 7 	 Sm: 0 	 T: kernel_launch(28.000000)
F:  2096120----T:  2135502 	 	 	 Kl: 8 	 Sm: 0 	 T: kernel_launch(26.591492)
F:  2357652----T:  2396512 	 	 	 Kl: 9 	 Sm: 0 	 T: kernel_launch(26.239027)
F:  2618662----T:  2657854 	 	 	 Kl: 10 	 Sm: 0 	 T: kernel_launch(26.463200)
F:  2880004----T:  2918925 	 	 	 Kl: 11 	 Sm: 0 	 T: kernel_launch(26.280216)
F:  3141075----T:  3180583 	 	 	 Kl: 12 	 Sm: 0 	 T: kernel_launch(26.676569)
F:  3402733----T:  3441786 	 	 	 Kl: 13 	 Sm: 0 	 T: kernel_launch(26.369345)
F:  3663936----T:  3703330 	 	 	 Kl: 14 	 Sm: 0 	 T: kernel_launch(26.599594)
F:  3925480----T:  3964420 	 	 	 Kl: 15 	 Sm: 0 	 T: kernel_launch(26.293045)
F:  4186570----T:  4225735 	 	 	 Kl: 16 	 Sm: 0 	 T: kernel_launch(26.444969)
F:  4447885----T:  4486659 	 	 	 Kl: 17 	 Sm: 0 	 T: kernel_launch(26.180960)
F:  4708809----T:  4748073 	 	 	 Kl: 18 	 Sm: 0 	 T: kernel_launch(26.511816)
F:  4970223----T:  5009098 	 	 	 Kl: 19 	 Sm: 0 	 T: kernel_launch(26.249155)
F:  5231248----T:  5270348 	 	 	 Kl: 20 	 Sm: 0 	 T: kernel_launch(26.401081)
F:  5492498----T:  5531328 	 	 	 Kl: 21 	 Sm: 0 	 T: kernel_launch(26.218771)
F:  5753478----T:  5792942 	 	 	 Kl: 22 	 Sm: 0 	 T: kernel_launch(26.646860)
F:  6015092----T:  6054210 	 	 	 Kl: 23 	 Sm: 0 	 T: kernel_launch(26.413235)
F:  6276360----T:  6315649 	 	 	 Kl: 24 	 Sm: 0 	 T: kernel_launch(26.528696)
F:  6537799----T:  6576672 	 	 	 Kl: 25 	 Sm: 0 	 T: kernel_launch(26.247805)
F:  6798822----T:  6838099 	 	 	 Kl: 26 	 Sm: 0 	 T: kernel_launch(26.520594)
F:  7060249----T:  7099159 	 	 	 Kl: 27 	 Sm: 0 	 T: kernel_launch(26.272789)
F:  7321309----T:  7360712 	 	 	 Kl: 28 	 Sm: 0 	 T: kernel_launch(26.605671)
F:  7582862----T:  7621652 	 	 	 Kl: 29 	 Sm: 0 	 T: kernel_launch(26.191763)
F:  7843802----T:  7883035 	 	 	 Kl: 30 	 Sm: 0 	 T: kernel_launch(26.490885)
F:  8105185----T:  8143996 	 	 	 Kl: 31 	 Sm: 0 	 T: kernel_launch(26.205942)
F:  8366146----T:  8405260 	 	 	 Kl: 32 	 Sm: 0 	 T: kernel_launch(26.410534)
F:  8627410----T:  8666309 	 	 	 Kl: 33 	 Sm: 0 	 T: kernel_launch(26.265362)
F:  8888459----T:  8927930 	 	 	 Kl: 34 	 Sm: 0 	 T: kernel_launch(26.651587)
F:  9150080----T:  9189026 	 	 	 Kl: 35 	 Sm: 0 	 T: kernel_launch(26.297096)
F:  9411176----T:  9450367 	 	 	 Kl: 36 	 Sm: 0 	 T: kernel_launch(26.462524)
F:  9672517----T:  9711352 	 	 	 Kl: 37 	 Sm: 0 	 T: kernel_launch(26.222147)
F:  9933502----T:  9972696 	 	 	 Kl: 38 	 Sm: 0 	 T: kernel_launch(26.464552)
F: 10194846----T: 10233800 	 	 	 Kl: 39 	 Sm: 0 	 T: kernel_launch(26.302498)
F: 10455950----T: 10495095 	 	 	 Kl: 40 	 Sm: 0 	 T: kernel_launch(26.431465)
F: 10495095----T: 10495355 	 St: 0 Sz: 4096 	 Sm: 0 	 T: device_sync(0.175557)
F: 10495095----T: 10495919 	 St: 0 Sz: 61440 	 Sm: 0 	 T: device_sync(0.556381)
F: 10496179----T: 10496439 	 St: 0 Sz: 4096 	 Sm: 0 	 T: device_sync(0.175557)
F: 10496179----T: 10497003 	 St: 0 Sz: 61440 	 Sm: 0 	 T: device_sync(0.556381)
F: 10497263----T: 10497523 	 St: 0 Sz: 4096 	 Sm: 0 	 T: device_sync(0.175557)
F: 10497263----T: 10498832 	 St: 0 Sz: 126976 	 Sm: 0 	 T: device_sync(1.059419)
F: 10499092----T: 10499352 	 St: 0 Sz: 4096 	 Sm: 0 	 T: device_sync(0.175557)
F: 10499092----T: 10502164 	 St: 0 Sz: 258048 	 Sm: 0 	 T: device_sync(2.074274)
F: 10502424----T: 10502684 	 St: 0 Sz: 4096 	 Sm: 0 	 T: device_sync(0.175557)
F: 10502424----T: 10508507 	 St: 0 Sz: 520192 	 Sm: 0 	 T: device_sync(4.107360)
F: 10508767----T: 10509027 	 St: 0 Sz: 4096 	 Sm: 0 	 T: device_sync(0.175557)
F: 10508767----T: 10520875 	 St: 0 Sz: 1044480 	 Sm: 0 	 T: device_sync(8.175557)
F: 10521135----T: 10521395 	 St: 0 Sz: 4096 	 Sm: 0 	 T: device_sync(0.175557)
F: 10521135----T: 10521959 	 St: 0 Sz: 61440 	 Sm: 0 	 T: device_sync(0.556381)
F: 10522219----T: 10522479 	 St: 0 Sz: 4096 	 Sm: 0 	 T: device_sync(0.175557)
F: 10522219----T: 10523043 	 St: 0 Sz: 61440 	 Sm: 0 	 T: device_sync(0.556381)
F: 10523303----T: 10523563 	 St: 0 Sz: 4096 	 Sm: 0 	 T: device_sync(0.175557)
F: 10523303----T: 10524872 	 St: 0 Sz: 126976 	 Sm: 0 	 T: device_sync(1.059419)
F: 10525132----T: 10525392 	 St: 0 Sz: 4096 	 Sm: 0 	 T: device_sync(0.175557)
F: 10525132----T: 10528204 	 St: 0 Sz: 258048 	 Sm: 0 	 T: device_sync(2.074274)
F: 10528464----T: 10528724 	 St: 0 Sz: 4096 	 Sm: 0 	 T: device_sync(0.175557)
F: 10528464----T: 10534547 	 St: 0 Sz: 520192 	 Sm: 0 	 T: device_sync(4.107360)
F: 10534807----T: 10535067 	 St: 0 Sz: 4096 	 Sm: 0 	 T: device_sync(0.175557)
F: 10534807----T: 10543903 	 St: 0 Sz: 782336 	 Sm: 0 	 T: device_sync(6.141796)
Tot_prefetch_time: 0(cycle), 0.000000(us)
Tot_kernel_exec_time: 1609095(cycle), 1086.492188(us)
Tot_kernel_exec_time_and_fault_time: 2408835(cycle), 1626.492188(us)
Tot_memcpy_h2d_time: 51948(cycle), 35.076302(us)
Tot_memcpy_d2h_time: 0(cycle), 0.000000(us)
Tot_memcpy_time: 51948(cycle), 35.076302(us)
Tot_devicesync_time: 49068(cycle), 33.131668(us)
Tot_writeback_time: 0(cycle), 0.000000(us)
Tot_rdma_time: 0(cycle), 0.000000(us)
Tot_memcpy_d2h_sync_wb_time: 49068(cycle), 33.131668(us)
GPGPU-Sim: *** exit detected ***
