

        *** GPGPU-Sim Simulator Version 3.2.2  [build gpgpu-sim_git-commit-32a5e88e7f0bd0281e1f3b1056e517909662bd85_modified_0] ***


GPGPU-Sim PTX: simulation mode 0 (can change with PTX_SIM_MODE_FUNC environment variable:
               1=functional simulation only, 0=detailed performance simulator)
GPGPU-Sim: Configuration options:

-network_mode                           1 # Interconnection network mode
-inter_config_file   config_fermi_islip.icnt # Interconnection network config file
-gpgpu_ptx_use_cuobjdump                    1 # Use cuobjdump to extract ptx and sass from binaries
-gpgpu_experimental_lib_support                    0 # Try to extract code from cuda libraries [Broken because of unknown cudaGetExportTable]
-gpgpu_ptx_convert_to_ptxplus                    0 # Convert SASS (native ISA) to ptxplus and run ptxplus
-gpgpu_ptx_force_max_capability                   20 # Force maximum compute capability
-gpgpu_ptx_inst_debug_to_file                    0 # Dump executed instructions' debug information to file
-gpgpu_ptx_inst_debug_file       inst_debug.txt # Executed instructions' debug output file
-gpgpu_ptx_inst_debug_thread_uid                    1 # Thread UID for executed instructions' debug output
-gpgpu_simd_model                       1 # 1 = post-dominator
-gpgpu_shader_core_pipeline              2048:32 # shader core pipeline config, i.e., {<nthread>:<warpsize>}
-gpgpu_tex_cache:l1  16:128:24,L:R:m:N:L,F:128:4,128:2 # per-shader L1 texture cache  (READ-ONLY) config  {<nsets>:<bsize>:<assoc>,<rep>:<wr>:<alloc>:<wr_alloc>,<mshr>:<N>:<merge>,<mq>:<rf>}
-gpgpu_const_cache:l1 128:64:2,L:R:f:N:L,A:2:64,4 # per-shader L1 constant memory cache  (READ-ONLY) config  {<nsets>:<bsize>:<assoc>,<rep>:<wr>:<alloc>:<wr_alloc>,<mshr>:<N>:<merge>,<mq>} 
-gpgpu_cache:il1     8:128:4,L:R:f:N:L,A:2:48,4 # shader L1 instruction cache config  {<nsets>:<bsize>:<assoc>,<rep>:<wr>:<alloc>:<wr_alloc>,<mshr>:<N>:<merge>,<mq>} 
-gpgpu_cache:dl1     64:128:6,L:L:m:N:H,A:128:8,8 # per-shader L1 data cache config  {<nsets>:<bsize>:<assoc>,<rep>:<wr>:<alloc>:<wr_alloc>,<mshr>:<N>:<merge>,<mq> | none}
-gpgpu_cache:dl1PrefL1                 none # per-shader L1 data cache config  {<nsets>:<bsize>:<assoc>,<rep>:<wr>:<alloc>:<wr_alloc>,<mshr>:<N>:<merge>,<mq> | none}
-gpgpu_cache:dl1PrefShared                 none # per-shader L1 data cache config  {<nsets>:<bsize>:<assoc>,<rep>:<wr>:<alloc>:<wr_alloc>,<mshr>:<N>:<merge>,<mq> | none}
-gmem_skip_L1D                          1 # global memory access skip L1D cache (implements -Xptxas -dlcm=cg, default=no skip)
-gpgpu_perfect_mem                      0 # enable perfect memory mode (no cache miss)
-n_regfile_gating_group                    4 # group of lanes that should be read/written together)
-gpgpu_clock_gated_reg_file                    0 # enable clock gated reg file for power calculations
-gpgpu_clock_gated_lanes                    0 # enable clock gated lanes for power calculations
-gpgpu_shader_registers                65536 # Number of registers per shader core. Limits number of concurrent CTAs. (default 8192)
-gpgpu_shader_cta                      32 # Maximum number of concurrent CTAs in shader (default 8)
-gpgpu_num_cta_barriers                   16 # Maximum number of named barriers per CTA (default 16)
-gpgpu_n_clusters                      28 # number of processing clusters
-gpgpu_n_cores_per_cluster                    1 # number of simd cores per cluster
-gpgpu_n_cluster_ejection_buffer_size                    8 # number of packets in ejection buffer
-gpgpu_n_ldst_response_buffer_size                    2 # number of response packets in ld/st unit ejection buffer
-gpgpu_shmem_size                   16384 # Size of shared memory per shader core (default 16kB)
-gpgpu_shmem_size                   98304 # Size of shared memory per shader core (default 16kB)
-gpgpu_shmem_size_PrefL1                16384 # Size of shared memory per shader core (default 16kB)
-gpgpu_shmem_size_PrefShared                16384 # Size of shared memory per shader core (default 16kB)
-gpgpu_shmem_num_banks                   32 # Number of banks in the shared memory in each shader core (default 16)
-gpgpu_shmem_limited_broadcast                    0 # Limit shared memory to do one broadcast per cycle (default on)
-gpgpu_shmem_warp_parts                    1 # Number of portions a warp is divided into for shared memory bank conflict check 
-gpgpu_warpdistro_shader                   -1 # Specify which shader core to collect the warp size distribution from
-gpgpu_warp_issue_shader                    0 # Specify which shader core to collect the warp issue distribution from
-gpgpu_local_mem_map                    1 # Mapping from local memory space address to simulated GPU physical address space (default = enabled)
-gpgpu_num_reg_banks                   32 # Number of register banks (default = 8)
-gpgpu_reg_bank_use_warp_id                    0 # Use warp ID in mapping registers to banks (default = off)
-gpgpu_operand_collector_num_units_sp                   20 # number of collector units (default = 4)
-gpgpu_operand_collector_num_units_sfu                    4 # number of collector units (default = 4)
-gpgpu_operand_collector_num_units_mem                    8 # number of collector units (default = 2)
-gpgpu_operand_collector_num_units_gen                    0 # number of collector units (default = 0)
-gpgpu_operand_collector_num_in_ports_sp                    4 # number of collector unit in ports (default = 1)
-gpgpu_operand_collector_num_in_ports_sfu                    1 # number of collector unit in ports (default = 1)
-gpgpu_operand_collector_num_in_ports_mem                    1 # number of collector unit in ports (default = 1)
-gpgpu_operand_collector_num_in_ports_gen                    0 # number of collector unit in ports (default = 0)
-gpgpu_operand_collector_num_out_ports_sp                    4 # number of collector unit in ports (default = 1)
-gpgpu_operand_collector_num_out_ports_sfu                    1 # number of collector unit in ports (default = 1)
-gpgpu_operand_collector_num_out_ports_mem                    1 # number of collector unit in ports (default = 1)
-gpgpu_operand_collector_num_out_ports_gen                    0 # number of collector unit in ports (default = 0)
-gpgpu_coalesce_arch                   13 # Coalescing arch (default = 13, anything else is off for now)
-gpgpu_num_sched_per_core                    2 # Number of warp schedulers per core
-gpgpu_max_insn_issue_per_warp                    2 # Max number of instructions that can be issued per warp in one cycle by scheduler
-gpgpu_simt_core_sim_order                    1 # Select the simulation order of cores in a cluster (0=Fix, 1=Round-Robin)
-gpgpu_pipeline_widths        4,1,1,4,1,1,6 # Pipeline widths ID_OC_SP,ID_OC_SFU,ID_OC_MEM,OC_EX_SP,OC_EX_SFU,OC_EX_MEM,EX_WB
-gpgpu_num_sp_units                     4 # Number of SP units (default=1)
-gpgpu_num_sfu_units                    1 # Number of SF units (default=1)
-gpgpu_num_mem_units                    1 # Number if ldst units (default=1) WARNING: not hooked up to anything
-gpgpu_scheduler                      gto # Scheduler configuration: < lrr | gto | two_level_active > If two_level_active:<num_active_warps>:<inner_prioritization>:<outer_prioritization>For complete list of prioritization values see shader.h enum scheduler_prioritization_typeDefault: gto
-gpgpu_concurrent_kernel_sm                    0 # Support concurrent kernels on a SM (default = disabled)
-tlb_size                            4096 # Number of tlb entries per SM.
-gpgpu_dram_scheduler                    1 # 0 = fifo, 1 = FR-FCFS (defaul)
-gpgpu_dram_partition_queues              8:8:8:8 # i2$:$2d:d2$:$2i
-l2_ideal                               0 # Use a ideal L2 cache that always hit
-gpgpu_cache:dl2     64:128:16,L:B:m:W:L,A:1024:1024,4:0,32 # unified banked L2 data cache config  {<nsets>:<bsize>:<assoc>,<rep>:<wr>:<alloc>:<wr_alloc>,<mshr>:<N>:<merge>,<mq>}
-gpgpu_cache:dl2_texture_only                    0 # L2 cache used for texture only
-gpgpu_n_mem                           11 # number of memory modules (e.g. memory controllers) in gpu
-gpgpu_n_sub_partition_per_mchannel                    2 # number of memory subpartition in each memory module
-gpgpu_n_mem_per_ctrlr                    1 # number of memory chips per memory controller
-gpgpu_memlatency_stat                   14 # track and display latency statistics 0x2 enables MC, 0x4 enables queue logs
-gpgpu_frfcfs_dram_sched_queue_size                   64 # 0 = unlimited (default); # entries per chip
-gpgpu_dram_return_queue_size                  116 # 0 = unlimited (default); # entries per chip
-gpgpu_dram_buswidth                    4 # default = 4 bytes (8 bytes per cycle at DDR)
-gpgpu_dram_burst_length                    8 # Burst length of each DRAM request (default = 4 data bus cycle)
-dram_data_command_freq_ratio                    4 # Frequency ratio between DRAM data bus and command bus (default = 2 times, i.e. DDR)
-gpgpu_dram_timing_opt nbk=16:CCD=2:RRD=6:RCD=12:RAS=28:RP=12:RC=40: CL=12:WL=4:CDLR=5:WR=12:nbkgrp=1:CCDL=0:RTPL=0 # DRAM timing parameters = {nbk:tCCD:tRRD:tRCD:tRAS:tRP:tRC:CL:WL:tCDLR:tWR:nbkgrp:tCCDL:tRTPL}
-rop_latency                          120 # ROP queue latency (default 85)
-dram_latency                         100 # DRAM latency (default 30)
-gpgpu_mem_addr_mapping dramid@8;00000000.00000000.00000000.00000000.0000RRRR.RRRRRRRR.RBBBCCCC.BCCSSSSS # mapping memory address to dram model {dramid@<start bit>;<memory address map>}
-gpgpu_mem_addr_test                    0 # run sweep test to check address mapping for aliased address
-gpgpu_mem_address_mask                    1 # 0 = old addressing mask, 1 = new addressing mask, 2 = new add. mask + flipped bank sel and chip sel bits
-gpuwattch_xml_file  gpuwattch_geforcegtx1080ti.xml # GPUWattch XML file
-power_simulation_enabled                    1 # Turn on power simulator (1=On, 0=Off)
-power_per_cycle_dump                    0 # Dump detailed power output each cycle
-power_trace_enabled                    0 # produce a file for the power trace (1=On, 0=Off)
-power_trace_zlevel                     6 # Compression level of the power trace output log (0=no comp, 9=highest)
-steady_power_levels_enabled                    0 # produce a file for the steady power levels (1=On, 0=Off)
-steady_state_definition                  8:4 # allowed deviation:number of samples
-gpgpu_max_cycle                        0 # terminates gpu simulation early (0 = no limit)
-gpgpu_max_insn                         0 # terminates gpu simulation early (0 = no limit)
-gpgpu_max_cta                          0 # terminates gpu simulation early (0 = no limit)
-gpgpu_runtime_stat                   500 # display runtime statistics such as dram utilization {<freq>:<flag>}
-liveness_message_freq                    1 # Minimum number of seconds between simulation liveness messages (0 = always print)
-gpgpu_flush_l1_cache                    0 # Flush L1 cache at the end of each kernel call
-gpgpu_flush_l2_cache                    0 # Flush L2 cache at the end of each kernel call
-gpgpu_deadlock_detect                    0 # Stop the simulation at deadlock (1=on (default), 0=off)
-gpgpu_ptx_instruction_classification                    0 # if enabled will classify ptx instruction types per kernel (Max 255 kernels now)
-gpgpu_ptx_sim_mode                     0 # Select between Performance (default) or Functional simulation (1)
-gpgpu_clock_domains 1481.0:2962.0:1481.0:2750.0 # Clock Domain Frequencies in MhZ {<Core Clock>:<ICNT Clock>:<L2 Clock>:<DRAM Clock>}
-gpgpu_max_concurrent_kernel                    8 # maximum kernels that can run concurrently on GPU
-gpgpu_cflog_interval                    0 # Interval between each snapshot in control flow logger
-visualizer_enabled                     0 # Turn on visualizer output (1=On, 0=Off)
-visualizer_outputfile                 NULL # Specifies the output log file for visualizer
-visualizer_zlevel                      6 # Compression level of the visualizer output log (0=no comp, 9=highest)
-trace_enabled                          0 # Turn on traces
-trace_components                    none # comma seperated list of traces to enable. Complete list found in trace_streams.tup. Default none
-trace_sampling_core                    0 # The core which is printed using CORE_DPRINTF. Default 0
-trace_sampling_memory_partition                   -1 # The memory partition which is printed using MEMPART_DPRINTF. Default -1 (i.e. all)
-gddr_size                            1GB # Size of GDDR in MB/GB.(GLOBAL_HEAP_START, GLOBAL_HEAP_START + gddr_size) would be used for unmanged memory, (GLOBAL_HEAP_START + gddr_size, GLOBAL_HEAP_START + gddr_size*2) would be used for managed memory. 
-page_table_walk_latency                  100 # Average page table walk latency (in core cycle).
-eviction_policy                        0 # Select page eviction policy
-invalidate_clean                       0 # Should directly invalidate clean pages
-reserve_accessed_page_percent                    0 # Percentage of accessed pages reserved from eviction in hope that they will be accessed in next iteration.
-percentage_of_free_page_buffer                    0 # Percentage of free page buffer to trigger the page eviction.
-page_size                            4KB # GDDR page size, only 4KB/2MB avaliable.
-pcie_bandwidth                  16.0GB/s # PCI-e bandwidth per direction, in GB/s.
-enable_dma                             0 # Enable direct access to CPU memory
-multiply_dma_penalty                    2 # Oversubscription Multiplicative Penalty Factor for Adaptive DMA
-migrate_threshold                      8 # Access counter threshold for migrating the page from cpu to gpu
-sim_prof_enable                        1 # Enable gpgpu-sim profiler
-hardware_prefetch                      1 # Select gpgpu-sim hardware prefetcher
-hwprefetch_oversub                     1 # Select gpgpu-sim hardware prefetcher under over-subscription
-page_fault_latency                 66645 # Average fault latency (in core cycle).
-enable_accurate_simulation                    0 # Enable page fault functional simulation.
-enable_smart_runtime                    0 # Enable access pattern detection, policy engine, and adaptive memory management.
-enable_ptx_file_line_stats                    1 # Turn on PTX source line statistic profiling. (1 = On)
-ptx_line_stats_filename gpgpu_inst_stats.txt # Output file for PTX source line statistics.
-gpgpu_kernel_launch_latency               222150 # Kernel launch latency in cycles. Default: 0
-gpgpu_cdp_enabled                      0 # Turn on CDP
-save_embedded_ptx                      0 # saves ptx files embedded in binary as <n>.ptx
-keep                                   0 # keep intermediate files created by GPGPU-Sim when interfacing with external programs
-gpgpu_ptx_save_converted_ptxplus                    0 # Saved converted ptxplus to a file
-ptx_opcode_latency_int         4,13,4,5,145 # Opcode latencies for integers <ADD,MAX,MUL,MAD,DIV>Default 1,1,19,25,145
-ptx_opcode_latency_fp          4,13,4,5,39 # Opcode latencies for single precision floating points <ADD,MAX,MUL,MAD,DIV>Default 1,1,1,1,30
-ptx_opcode_latency_dp         8,19,8,8,330 # Opcode latencies for double precision floating points <ADD,MAX,MUL,MAD,DIV>Default 8,8,8,8,335
-ptx_opcode_initiation_int            1,2,2,2,8 # Opcode initiation intervals for integers <ADD,MAX,MUL,MAD,DIV>Default 1,1,4,4,32
-ptx_opcode_initiation_fp            1,2,1,1,4 # Opcode initiation intervals for single precision floating points <ADD,MAX,MUL,MAD,DIV>Default 1,1,1,1,5
-ptx_opcode_initiation_dp          1,2,1,1,130 # Opcode initiation intervals for double precision floating points <ADD,MAX,MUL,MAD,DIV>Default 8,8,8,8,130
-cdp_latency         7200,8000,100,12000,1600 # CDP API latency <cudaStreamCreateWithFlags, cudaGetParameterBufferV2_init_perWarp, cudaGetParameterBufferV2_perKernel, cudaLaunchDeviceV2_init_perWarp, cudaLaunchDevicV2_perKernel>Default 7200,8000,100,12000,1600
DRAM Timing Options:
nbk                                    16 # number of banks
CCD                                     2 # column to column delay
RRD                                     6 # minimal delay between activation of rows in different banks
RCD                                    12 # row to column delay
RAS                                    28 # time needed to activate row
RP                                     12 # time needed to precharge (deactivate) row
RC                                     40 # row cycle time
CDLR                                    5 # switching from write to read (changes tWTR)
WR                                     12 # last data-in to row precharge
CL                                     12 # CAS latency
WL                                      4 # Write latency
nbkgrp                                  1 # number of bank groups
CCDL                                    0 # column to column delay between accesses to different bank groups
RTPL                                    0 # read to precharge delay between accesses to different bank groups
Total number of memory sub partition = 22
addr_dec_mask[CHIP]  = 0000000000000000 	high:64 low:0
addr_dec_mask[BK]    = 0000000000007080 	high:15 low:7
addr_dec_mask[ROW]   = 000000000fff8000 	high:28 low:15
addr_dec_mask[COL]   = 0000000000000f7f 	high:12 low:0
addr_dec_mask[BURST] = 000000000000001f 	high:5 low:0
sub_partition_id_mask = 0000000000000080
GPGPU-Sim uArch: clock freqs: 1481000000.000000:2962000000.000000:1481000000.000000:2750000000.000000
GPGPU-Sim uArch: clock periods: 0.00000000067521944632:0.00000000033760972316:0.00000000067521944632:0.00000000036363636364
*** Initializing Memory Statistics ***
GPGPU-Sim uArch: interconnect node map (shaderID+MemID to icntID)
GPGPU-Sim uArch: Memory nodes ID start from index: 28
GPGPU-Sim uArch:    0   1   2   3   4   5   6
GPGPU-Sim uArch:    7   8   9  10  11  12  13
GPGPU-Sim uArch:   14  15  16  17  18  19  20
GPGPU-Sim uArch:   21  22  23  24  25  26  27
GPGPU-Sim uArch:   28  29  30  31  32  33  34
GPGPU-Sim uArch:   35  36  37  38  39  40  41
GPGPU-Sim uArch:   42  43  44  45  46  47  48
GPGPU-Sim uArch:   49
GPGPU-Sim uArch: interconnect node reverse map (icntID to shaderID+MemID)
GPGPU-Sim uArch: Memory nodes start from ID: 28
GPGPU-Sim uArch:    0   1   2   3   4   5   6
GPGPU-Sim uArch:    7   8   9  10  11  12  13
GPGPU-Sim uArch:   14  15  16  17  18  19  20
GPGPU-Sim uArch:   21  22  23  24  25  26  27
GPGPU-Sim uArch:   28  29  30  31  32  33  34
GPGPU-Sim uArch:   35  36  37  38  39  40  41
GPGPU-Sim uArch:   42  43  44  45  46  47  48
GPGPU-Sim uArch:   49
5549bda1e83d2bf47cfcd0cf61af383e  /root/gpgpu-sim_UVMSmart/benchmarks/Managed/FDTD-2D/main
GPGPU-Sim uArch: performance model initialization complete.
GPGPU-Sim PTX: __cudaRegisterFatBinary, fat_cubin_handle = 1, filename=default
self exe links to: /root/gpgpu-sim_UVMSmart/benchmarks/Managed/FDTD-2D/main
Running md5sum using "md5sum /root/gpgpu-sim_UVMSmart/benchmarks/Managed/FDTD-2D/main "
Parsing file _cuobjdump_complete_output_iyKVrD
######### cuobjdump parser ########
## Adding new section ELF
Adding arch: sm_20
Adding identifier: default
## Adding new section ELF
Adding arch: sm_20
Adding identifier: default
## Adding new section PTX
Adding ptx filename: _cuobjdump_1.ptx
Adding arch: sm_20
Adding identifier: default
Done parsing!!!
GPGPU-Sim PTX: __cudaRegisterFunction _Z17fdtd_step3_kernelPfS_S_i : hostFun 0x0x401766, fat_cubin_handle = 1
GPGPU-Sim PTX: instruction assembly for function '_Z17fdtd_step1_kernelPfS_S_S_i'...   done.
GPGPU-Sim PTX: finding reconvergence points for '_Z17fdtd_step1_kernelPfS_S_S_i'...
GPGPU-Sim PTX: Finding dominators for '_Z17fdtd_step1_kernelPfS_S_S_i'...
GPGPU-Sim PTX: Finding immediate dominators for '_Z17fdtd_step1_kernelPfS_S_S_i'...
GPGPU-Sim PTX: Finding postdominators for '_Z17fdtd_step1_kernelPfS_S_S_i'...
GPGPU-Sim PTX: Finding immediate postdominators for '_Z17fdtd_step1_kernelPfS_S_S_i'...
GPGPU-Sim PTX: pre-decoding instructions for '_Z17fdtd_step1_kernelPfS_S_S_i'...
GPGPU-Sim PTX: reconvergence points for _Z17fdtd_step1_kernelPfS_S_S_i...
GPGPU-Sim PTX:  1 (potential) branch divergence @  PC=0x080 (_1.ptx:44) @!%p3 bra BB0_4;
GPGPU-Sim PTX:    immediate post dominator      @  PC=0x150 (_1.ptx:77) ret;
GPGPU-Sim PTX:  2 (potential) branch divergence @  PC=0x088 (_1.ptx:45) bra.uni BB0_1;
GPGPU-Sim PTX:    immediate post dominator      @  PC=0x090 (_1.ptx:48) setp.eq.s32%p4, %r2, 0;
GPGPU-Sim PTX:  3 (potential) branch divergence @  PC=0x098 (_1.ptx:49) @%p4 bra BB0_3;
GPGPU-Sim PTX:    immediate post dominator      @  PC=0x150 (_1.ptx:77) ret;
GPGPU-Sim PTX:  4 (potential) branch divergence @  PC=0x110 (_1.ptx:65) bra.uni BB0_4;
GPGPU-Sim PTX:    immediate post dominator      @  PC=0x150 (_1.ptx:77) ret;
GPGPU-Sim PTX: ... end of reconvergence points for _Z17fdtd_step1_kernelPfS_S_S_i
GPGPU-Sim PTX: ... done pre-decoding instructions for '_Z17fdtd_step1_kernelPfS_S_S_i'.
GPGPU-Sim PTX: instruction assembly for function '_Z17fdtd_step2_kernelPfS_S_i'...   done.
GPGPU-Sim PTX: finding reconvergence points for '_Z17fdtd_step2_kernelPfS_S_i'...
GPGPU-Sim PTX: Finding dominators for '_Z17fdtd_step2_kernelPfS_S_i'...
GPGPU-Sim PTX: Finding immediate dominators for '_Z17fdtd_step2_kernelPfS_S_i'...
GPGPU-Sim PTX: Finding postdominators for '_Z17fdtd_step2_kernelPfS_S_i'...
GPGPU-Sim PTX: Finding immediate postdominators for '_Z17fdtd_step2_kernelPfS_S_i'...
GPGPU-Sim PTX: pre-decoding instructions for '_Z17fdtd_step2_kernelPfS_S_i'...
GPGPU-Sim PTX: reconvergence points for _Z17fdtd_step2_kernelPfS_S_i...
GPGPU-Sim PTX:  1 (potential) branch divergence @  PC=0x1d0 (_1.ptx:109) @!%p5 bra BB1_2;
GPGPU-Sim PTX:    immediate post dominator      @  PC=0x268 (_1.ptx:132) ret;
GPGPU-Sim PTX:  2 (potential) branch divergence @  PC=0x1d8 (_1.ptx:110) bra.uni BB1_1;
GPGPU-Sim PTX:    immediate post dominator      @  PC=0x1e0 (_1.ptx:113) cvta.to.global.u64 %rd3, %rd2;
GPGPU-Sim PTX: ... end of reconvergence points for _Z17fdtd_step2_kernelPfS_S_i
GPGPU-Sim PTX: ... done pre-decoding instructions for '_Z17fdtd_step2_kernelPfS_S_i'.
GPGPU-Sim PTX: instruction assembly for function '_Z17fdtd_step3_kernelPfS_S_i'...   done.
GPGPU-Sim PTX: finding reconvergence points for '_Z17fdtd_step3_kernelPfS_S_i'...
GPGPU-Sim PTX: Finding dominators for '_Z17fdtd_step3_kernelPfS_S_i'...
GPGPU-Sim PTX: Finding immediate dominators for '_Z17fdtd_step3_kernelPfS_S_i'...
GPGPU-Sim PTX: Finding postdominators for '_Z17fdtd_step3_kernelPfS_S_i'...
GPGPU-Sim PTX: Finding immediate postdominators for '_Z17fdtd_step3_kernelPfS_S_i'...
GPGPU-Sim PTX: pre-decoding instructions for '_Z17fdtd_step3_kernelPfS_S_i'...
GPGPU-Sim PTX: reconvergence points for _Z17fdtd_step3_kernelPfS_S_i...
GPGPU-Sim PTX:  1 (potential) branch divergence @  PC=0x2e0 (_1.ptx:163) @!%p3 bra BB2_2;
GPGPU-Sim PTX:    immediate post dominator      @  PC=0x390 (_1.ptx:189) ret;
GPGPU-Sim PTX:  2 (potential) branch divergence @  PC=0x2e8 (_1.ptx:164) bra.uni BB2_1;
GPGPU-Sim PTX:    immediate post dominator      @  PC=0x2f0 (_1.ptx:167) cvta.to.global.u64 %rd4, %rd2;
GPGPU-Sim PTX: ... end of reconvergence points for _Z17fdtd_step3_kernelPfS_S_i
GPGPU-Sim PTX: ... done pre-decoding instructions for '_Z17fdtd_step3_kernelPfS_S_i'.
GPGPU-Sim PTX: finished parsing EMBEDDED .ptx file _1.ptx
Adding _cuobjdump_1.ptx with cubin handle 1
GPGPU-Sim PTX: extracting embedded .ptx to temporary file "_ptx_MVDl4t"
Running: cat _ptx_MVDl4t | sed 's/.version 1.5/.version 1.4/' | sed 's/, texmode_independent//' | sed 's/\(\.extern \.const\[1\] .b8 \w\+\)\[\]/\1\[1\]/' | sed 's/const\[.\]/const\[0\]/g' > _ptx2_WbpMGk
GPGPU-Sim PTX: generating ptxinfo using "$CUDA_INSTALL_PATH/bin/ptxas --gpu-name=sm_20 -v _ptx2_WbpMGk --output-file  /dev/null 2> _ptx_MVDl4tinfo"
GPGPU-Sim PTX: Kernel '_Z17fdtd_step2_kernelPfS_S_i' : regs=10, lmem=0, smem=0, cmem=60
GPGPU-Sim PTX: Kernel '_Z17fdtd_step1_kernelPfS_S_S_i' : regs=10, lmem=0, smem=0, cmem=68
GPGPU-Sim PTX: Kernel '_Z17fdtd_step3_kernelPfS_S_i' : regs=12, lmem=0, smem=0, cmem=64
GPGPU-Sim PTX: removing ptxinfo using "rm -f _ptx_MVDl4t _ptx2_WbpMGk _ptx_MVDl4tinfo"
GPGPU-Sim PTX: loading globals with explicit initializers... 
GPGPU-Sim PTX: finished loading globals (0 bytes total).
GPGPU-Sim PTX: loading constants with explicit initializers...  done.
GPGPU-Sim PTX: __cudaRegisterFunction _Z17fdtd_step2_kernelPfS_S_i : hostFun 0x0x40167f, fat_cubin_handle = 1
GPGPU-Sim PTX: __cudaRegisterFunction _Z17fdtd_step1_kernelPfS_S_S_i : hostFun 0x0x40158c, fat_cubin_handle = 1

GPGPU-Sim PTX: cudaLaunch for 0x0x40158c (mode=performance simulation) on stream 0
GPGPU-Sim PTX: pushing kernel '_Z17fdtd_step1_kernelPfS_S_S_i' to stream 0, gridDim= (38,150,1) blockDim = (32,8,1) 
GPGPU-Sim uArch: Shader 1 bind to kernel 1 '_Z17fdtd_step1_kernelPfS_S_S_i'
GPGPU-Sim uArch: CTA/core = 8, limited by: threads
GPGPU-Sim uArch: Shader 2 bind to kernel 1 '_Z17fdtd_step1_kernelPfS_S_S_i'
GPGPU-Sim uArch: Shader 3 bind to kernel 1 '_Z17fdtd_step1_kernelPfS_S_S_i'
GPGPU-Sim uArch: Shader 4 bind to kernel 1 '_Z17fdtd_step1_kernelPfS_S_S_i'
GPGPU-Sim uArch: Shader 5 bind to kernel 1 '_Z17fdtd_step1_kernelPfS_S_S_i'
GPGPU-Sim uArch: Shader 6 bind to kernel 1 '_Z17fdtd_step1_kernelPfS_S_S_i'
GPGPU-Sim uArch: Shader 7 bind to kernel 1 '_Z17fdtd_step1_kernelPfS_S_S_i'
GPGPU-Sim uArch: Shader 8 bind to kernel 1 '_Z17fdtd_step1_kernelPfS_S_S_i'
GPGPU-Sim uArch: Shader 9 bind to kernel 1 '_Z17fdtd_step1_kernelPfS_S_S_i'
GPGPU-Sim uArch: Shader 10 bind to kernel 1 '_Z17fdtd_step1_kernelPfS_S_S_i'
GPGPU-Sim uArch: Shader 11 bind to kernel 1 '_Z17fdtd_step1_kernelPfS_S_S_i'
GPGPU-Sim uArch: Shader 12 bind to kernel 1 '_Z17fdtd_step1_kernelPfS_S_S_i'
GPGPU-Sim uArch: Shader 13 bind to kernel 1 '_Z17fdtd_step1_kernelPfS_S_S_i'
GPGPU-Sim uArch: Shader 14 bind to kernel 1 '_Z17fdtd_step1_kernelPfS_S_S_i'
GPGPU-Sim uArch: Shader 15 bind to kernel 1 '_Z17fdtd_step1_kernelPfS_S_S_i'
GPGPU-Sim uArch: Shader 16 bind to kernel 1 '_Z17fdtd_step1_kernelPfS_S_S_i'
GPGPU-Sim uArch: Shader 17 bind to kernel 1 '_Z17fdtd_step1_kernelPfS_S_S_i'
GPGPU-Sim uArch: Shader 18 bind to kernel 1 '_Z17fdtd_step1_kernelPfS_S_S_i'
GPGPU-Sim uArch: Shader 19 bind to kernel 1 '_Z17fdtd_step1_kernelPfS_S_S_i'
GPGPU-Sim uArch: Shader 20 bind to kernel 1 '_Z17fdtd_step1_kernelPfS_S_S_i'
GPGPU-Sim uArch: Shader 21 bind to kernel 1 '_Z17fdtd_step1_kernelPfS_S_S_i'
GPGPU-Sim uArch: Shader 22 bind to kernel 1 '_Z17fdtd_step1_kernelPfS_S_S_i'
GPGPU-Sim uArch: Shader 23 bind to kernel 1 '_Z17fdtd_step1_kernelPfS_S_S_i'
GPGPU-Sim uArch: Shader 24 bind to kernel 1 '_Z17fdtd_step1_kernelPfS_S_S_i'
GPGPU-Sim uArch: Shader 25 bind to kernel 1 '_Z17fdtd_step1_kernelPfS_S_S_i'
GPGPU-Sim uArch: Shader 26 bind to kernel 1 '_Z17fdtd_step1_kernelPfS_S_S_i'
GPGPU-Sim uArch: Shader 27 bind to kernel 1 '_Z17fdtd_step1_kernelPfS_S_S_i'
GPGPU-Sim uArch: Shader 0 bind to kernel 1 '_Z17fdtd_step1_kernelPfS_S_S_i'
GPGPU-Sim uArch: Shader 3 bind to kernel 1 '_Z17fdtd_step1_kernelPfS_S_S_i'
GPGPU-Sim uArch: Shader 5 bind to kernel 1 '_Z17fdtd_step1_kernelPfS_S_S_i'
GPGPU-Sim uArch: Shader 6 bind to kernel 1 '_Z17fdtd_step1_kernelPfS_S_S_i'
GPGPU-Sim uArch: Shader 9 bind to kernel 1 '_Z17fdtd_step1_kernelPfS_S_S_i'
GPGPU-Sim uArch: Shader 13 bind to kernel 1 '_Z17fdtd_step1_kernelPfS_S_S_i'
GPGPU-Sim uArch: Shader 16 bind to kernel 1 '_Z17fdtd_step1_kernelPfS_S_S_i'
GPGPU-Sim uArch: Shader 17 bind to kernel 1 '_Z17fdtd_step1_kernelPfS_S_S_i'
GPGPU-Sim uArch: Shader 19 bind to kernel 1 '_Z17fdtd_step1_kernelPfS_S_S_i'
GPGPU-Sim uArch: Shader 21 bind to kernel 1 '_Z17fdtd_step1_kernelPfS_S_S_i'
GPGPU-Sim uArch: Shader 22 bind to kernel 1 '_Z17fdtd_step1_kernelPfS_S_S_i'
GPGPU-Sim uArch: Shader 24 bind to kernel 1 '_Z17fdtd_step1_kernelPfS_S_S_i'
GPGPU-Sim uArch: Shader 26 bind to kernel 1 '_Z17fdtd_step1_kernelPfS_S_S_i'
GPGPU-Sim uArch: Shader 27 bind to kernel 1 '_Z17fdtd_step1_kernelPfS_S_S_i'
GPGPU-Sim uArch: Shader 11 bind to kernel 1 '_Z17fdtd_step1_kernelPfS_S_S_i'
GPGPU-Sim uArch: Shader 14 bind to kernel 1 '_Z17fdtd_step1_kernelPfS_S_S_i'
GPGPU-Sim uArch: Shader 15 bind to kernel 1 '_Z17fdtd_step1_kernelPfS_S_S_i'
GPGPU-Sim uArch: Shader 16 bind to kernel 1 '_Z17fdtd_step1_kernelPfS_S_S_i'
GPGPU-Sim uArch: Shader 23 bind to kernel 1 '_Z17fdtd_step1_kernelPfS_S_S_i'
GPGPU-Sim uArch: Shader 25 bind to kernel 1 '_Z17fdtd_step1_kernelPfS_S_S_i'
GPGPU-Sim uArch: Shader 26 bind to kernel 1 '_Z17fdtd_step1_kernelPfS_S_S_i'
GPGPU-Sim uArch: Shader 0 bind to kernel 1 '_Z17fdtd_step1_kernelPfS_S_S_i'
GPGPU-Sim uArch: Shader 1 bind to kernel 1 '_Z17fdtd_step1_kernelPfS_S_S_i'
GPGPU-Sim uArch: Shader 2 bind to kernel 1 '_Z17fdtd_step1_kernelPfS_S_S_i'
GPGPU-Sim uArch: Shader 3 bind to kernel 1 '_Z17fdtd_step1_kernelPfS_S_S_i'
GPGPU-Sim uArch: Shader 4 bind to kernel 1 '_Z17fdtd_step1_kernelPfS_S_S_i'
GPGPU-Sim uArch: Shader 7 bind to kernel 1 '_Z17fdtd_step1_kernelPfS_S_S_i'
GPGPU-Sim uArch: Shader 9 bind to kernel 1 '_Z17fdtd_step1_kernelPfS_S_S_i'
GPGPU-Sim uArch: Shader 12 bind to kernel 1 '_Z17fdtd_step1_kernelPfS_S_S_i'
GPGPU-Sim uArch: Shader 13 bind to kernel 1 '_Z17fdtd_step1_kernelPfS_S_S_i'
GPGPU-Sim uArch: Shader 14 bind to kernel 1 '_Z17fdtd_step1_kernelPfS_S_S_i'
GPGPU-Sim uArch: Shader 17 bind to kernel 1 '_Z17fdtd_step1_kernelPfS_S_S_i'
GPGPU-Sim uArch: Shader 18 bind to kernel 1 '_Z17fdtd_step1_kernelPfS_S_S_i'
GPGPU-Sim uArch: Shader 20 bind to kernel 1 '_Z17fdtd_step1_kernelPfS_S_S_i'
GPGPU-Sim uArch: Shader 21 bind to kernel 1 '_Z17fdtd_step1_kernelPfS_S_S_i'
GPGPU-Sim uArch: Shader 22 bind to kernel 1 '_Z17fdtd_step1_kernelPfS_S_S_i'
GPGPU-Sim uArch: Shader 23 bind to kernel 1 '_Z17fdtd_step1_kernelPfS_S_S_i'
GPGPU-Sim uArch: Shader 24 bind to kernel 1 '_Z17fdtd_step1_kernelPfS_S_S_i'
GPGPU-Sim uArch: Shader 25 bind to kernel 1 '_Z17fdtd_step1_kernelPfS_S_S_i'
GPGPU-Sim uArch: Shader 26 bind to kernel 1 '_Z17fdtd_step1_kernelPfS_S_S_i'
GPGPU-Sim uArch: Shader 27 bind to kernel 1 '_Z17fdtd_step1_kernelPfS_S_S_i'
GPGPU-Sim uArch: Shader 0 bind to kernel 1 '_Z17fdtd_step1_kernelPfS_S_S_i'
GPGPU-Sim uArch: Shader 1 bind to kernel 1 '_Z17fdtd_step1_kernelPfS_S_S_i'
GPGPU-Sim uArch: Shader 2 bind to kernel 1 '_Z17fdtd_step1_kernelPfS_S_S_i'
GPGPU-Sim uArch: Shader 3 bind to kernel 1 '_Z17fdtd_step1_kernelPfS_S_S_i'
GPGPU-Sim uArch: Shader 4 bind to kernel 1 '_Z17fdtd_step1_kernelPfS_S_S_i'
GPGPU-Sim uArch: Shader 5 bind to kernel 1 '_Z17fdtd_step1_kernelPfS_S_S_i'
GPGPU-Sim uArch: Shader 6 bind to kernel 1 '_Z17fdtd_step1_kernelPfS_S_S_i'
GPGPU-Sim uArch: Shader 7 bind to kernel 1 '_Z17fdtd_step1_kernelPfS_S_S_i'
GPGPU-Sim uArch: Shader 8 bind to kernel 1 '_Z17fdtd_step1_kernelPfS_S_S_i'
GPGPU-Sim uArch: Shader 9 bind to kernel 1 '_Z17fdtd_step1_kernelPfS_S_S_i'
GPGPU-Sim uArch: Shader 10 bind to kernel 1 '_Z17fdtd_step1_kernelPfS_S_S_i'
GPGPU-Sim uArch: Shader 11 bind to kernel 1 '_Z17fdtd_step1_kernelPfS_S_S_i'
GPGPU-Sim uArch: Shader 12 bind to kernel 1 '_Z17fdtd_step1_kernelPfS_S_S_i'
GPGPU-Sim uArch: Shader 13 bind to kernel 1 '_Z17fdtd_step1_kernelPfS_S_S_i'
GPGPU-Sim uArch: Shader 14 bind to kernel 1 '_Z17fdtd_step1_kernelPfS_S_S_i'
GPGPU-Sim uArch: Shader 15 bind to kernel 1 '_Z17fdtd_step1_kernelPfS_S_S_i'
GPGPU-Sim uArch: Shader 16 bind to kernel 1 '_Z17fdtd_step1_kernelPfS_S_S_i'
GPGPU-Sim uArch: Shader 17 bind to kernel 1 '_Z17fdtd_step1_kernelPfS_S_S_i'
GPGPU-Sim uArch: Shader 18 bind to kernel 1 '_Z17fdtd_step1_kernelPfS_S_S_i'
GPGPU-Sim uArch: Shader 19 bind to kernel 1 '_Z17fdtd_step1_kernelPfS_S_S_i'
GPGPU-Sim uArch: Shader 18 bind to kernel 1 '_Z17fdtd_step1_kernelPfS_S_S_i'
GPGPU-Sim uArch: Shader 20 bind to kernel 1 '_Z17fdtd_step1_kernelPfS_S_S_i'
GPGPU-Sim uArch: Shader 21 bind to kernel 1 '_Z17fdtd_step1_kernelPfS_S_S_i'
GPGPU-Sim uArch: Shader 22 bind to kernel 1 '_Z17fdtd_step1_kernelPfS_S_S_i'
GPGPU-Sim uArch: Shader 25 bind to kernel 1 '_Z17fdtd_step1_kernelPfS_S_S_i'
GPGPU-Sim uArch: Shader 1 bind to kernel 1 '_Z17fdtd_step1_kernelPfS_S_S_i'
GPGPU-Sim uArch: Shader 3 bind to kernel 1 '_Z17fdtd_step1_kernelPfS_S_S_i'
GPGPU-Sim uArch: Shader 4 bind to kernel 1 '_Z17fdtd_step1_kernelPfS_S_S_i'
GPGPU-Sim uArch: Shader 13 bind to kernel 1 '_Z17fdtd_step1_kernelPfS_S_S_i'
GPGPU-Sim uArch: Shader 18 bind to kernel 1 '_Z17fdtd_step1_kernelPfS_S_S_i'
GPGPU-Sim uArch: Shader 22 bind to kernel 1 '_Z17fdtd_step1_kernelPfS_S_S_i'
GPGPU-Sim uArch: Shader 24 bind to kernel 1 '_Z17fdtd_step1_kernelPfS_S_S_i'
GPGPU-Sim uArch: Shader 26 bind to kernel 1 '_Z17fdtd_step1_kernelPfS_S_S_i'
GPGPU-Sim uArch: Shader 27 bind to kernel 1 '_Z17fdtd_step1_kernelPfS_S_S_i'
GPGPU-Sim uArch: Shader 1 bind to kernel 1 '_Z17fdtd_step1_kernelPfS_S_S_i'
GPGPU-Sim uArch: Shader 2 bind to kernel 1 '_Z17fdtd_step1_kernelPfS_S_S_i'
GPGPU-Sim uArch: Shader 4 bind to kernel 1 '_Z17fdtd_step1_kernelPfS_S_S_i'
GPGPU-Sim uArch: Shader 5 bind to kernel 1 '_Z17fdtd_step1_kernelPfS_S_S_i'
GPGPU-Sim uArch: Shader 11 bind to kernel 1 '_Z17fdtd_step1_kernelPfS_S_S_i'
GPGPU-Sim uArch: Shader 13 bind to kernel 1 '_Z17fdtd_step1_kernelPfS_S_S_i'
Destroy streams for kernel 1: size 0
kernel_name = _Z17fdtd_step1_kernelPfS_S_S_i 
kernel_launch_uid = 1 
gpu_sim_cycle = 1624139
gpu_sim_insn = 49297200
gpu_ipc =      30.3528
gpu_tot_sim_cycle = 1846289
gpu_tot_sim_insn = 49297200
gpu_tot_ipc =      26.7007
gpu_tot_issued_cta = 5700
max_total_param_size = 0
gpu_stall_dramfull = 232830
gpu_stall_icnt2sh    = 727095
partiton_reqs_in_parallel = 35498228
partiton_reqs_in_parallel_total    = 0
partiton_level_parallism =      21.8566
partiton_level_parallism_total  =      19.2268
partiton_reqs_in_parallel_util = 35498228
partiton_reqs_in_parallel_util_total    = 0
gpu_sim_cycle_parition_util = 1623448
gpu_tot_sim_cycle_parition_util    = 0
partiton_level_parallism_util =      21.8659
partiton_level_parallism_util_total  =      21.8659
partiton_replys_in_parallel = 271199
partiton_replys_in_parallel_total    = 0
L2_BW  =      15.8270 GB/Sec
L2_BW_total  =      13.9227 GB/Sec
gpu_total_sim_rate=20643

========= Core cache stats =========
L1I_cache:
	L1I_total_cache_accesses = 866248
	L1I_total_cache_misses = 1981
	L1I_total_cache_miss_rate = 0.0023
	L1I_total_cache_pending_hits = 0
	L1I_total_cache_reservation_fails = 6846
L1D_cache:
	L1D_cache_core[0]: Access = 0, Miss = 0, Miss_rate = -nan, Pending_hits = 0, Reservation_fails = 0
	L1D_cache_core[1]: Access = 0, Miss = 0, Miss_rate = -nan, Pending_hits = 0, Reservation_fails = 0
	L1D_cache_core[2]: Access = 0, Miss = 0, Miss_rate = -nan, Pending_hits = 0, Reservation_fails = 0
	L1D_cache_core[3]: Access = 0, Miss = 0, Miss_rate = -nan, Pending_hits = 0, Reservation_fails = 0
	L1D_cache_core[4]: Access = 0, Miss = 0, Miss_rate = -nan, Pending_hits = 0, Reservation_fails = 0
	L1D_cache_core[5]: Access = 0, Miss = 0, Miss_rate = -nan, Pending_hits = 0, Reservation_fails = 0
	L1D_cache_core[6]: Access = 0, Miss = 0, Miss_rate = -nan, Pending_hits = 0, Reservation_fails = 0
	L1D_cache_core[7]: Access = 0, Miss = 0, Miss_rate = -nan, Pending_hits = 0, Reservation_fails = 0
	L1D_cache_core[8]: Access = 0, Miss = 0, Miss_rate = -nan, Pending_hits = 0, Reservation_fails = 0
	L1D_cache_core[9]: Access = 0, Miss = 0, Miss_rate = -nan, Pending_hits = 0, Reservation_fails = 0
	L1D_cache_core[10]: Access = 0, Miss = 0, Miss_rate = -nan, Pending_hits = 0, Reservation_fails = 0
	L1D_cache_core[11]: Access = 0, Miss = 0, Miss_rate = -nan, Pending_hits = 0, Reservation_fails = 0
	L1D_cache_core[12]: Access = 0, Miss = 0, Miss_rate = -nan, Pending_hits = 0, Reservation_fails = 0
	L1D_cache_core[13]: Access = 0, Miss = 0, Miss_rate = -nan, Pending_hits = 0, Reservation_fails = 0
	L1D_cache_core[14]: Access = 0, Miss = 0, Miss_rate = -nan, Pending_hits = 0, Reservation_fails = 0
	L1D_cache_core[15]: Access = 0, Miss = 0, Miss_rate = -nan, Pending_hits = 0, Reservation_fails = 0
	L1D_cache_core[16]: Access = 0, Miss = 0, Miss_rate = -nan, Pending_hits = 0, Reservation_fails = 0
	L1D_cache_core[17]: Access = 0, Miss = 0, Miss_rate = -nan, Pending_hits = 0, Reservation_fails = 0
	L1D_cache_core[18]: Access = 0, Miss = 0, Miss_rate = -nan, Pending_hits = 0, Reservation_fails = 0
	L1D_cache_core[19]: Access = 0, Miss = 0, Miss_rate = -nan, Pending_hits = 0, Reservation_fails = 0
	L1D_cache_core[20]: Access = 0, Miss = 0, Miss_rate = -nan, Pending_hits = 0, Reservation_fails = 0
	L1D_cache_core[21]: Access = 0, Miss = 0, Miss_rate = -nan, Pending_hits = 0, Reservation_fails = 0
	L1D_cache_core[22]: Access = 0, Miss = 0, Miss_rate = -nan, Pending_hits = 0, Reservation_fails = 0
	L1D_cache_core[23]: Access = 0, Miss = 0, Miss_rate = -nan, Pending_hits = 0, Reservation_fails = 0
	L1D_cache_core[24]: Access = 0, Miss = 0, Miss_rate = -nan, Pending_hits = 0, Reservation_fails = 0
	L1D_cache_core[25]: Access = 0, Miss = 0, Miss_rate = -nan, Pending_hits = 0, Reservation_fails = 0
	L1D_cache_core[26]: Access = 0, Miss = 0, Miss_rate = -nan, Pending_hits = 0, Reservation_fails = 0
	L1D_cache_core[27]: Access = 0, Miss = 0, Miss_rate = -nan, Pending_hits = 0, Reservation_fails = 0
	L1D_total_cache_accesses = 0
	L1D_total_cache_misses = 0
	L1D_total_cache_pending_hits = 0
	L1D_total_cache_reservation_fails = 0
	L1D_cache_data_port_util = 0.000
	L1D_cache_fill_port_util = 0.000
L1C_cache:
	L1C_total_cache_accesses = 182400
	L1C_total_cache_misses = 1792
	L1C_total_cache_miss_rate = 0.0098
	L1C_total_cache_pending_hits = 0
	L1C_total_cache_reservation_fails = 4886
L1T_cache:
	L1T_total_cache_accesses = 0
	L1T_total_cache_misses = 0
	L1T_total_cache_pending_hits = 0
	L1T_total_cache_reservation_fails = 0

Total_core_cache_stats:
	Total_core_cache_stats_breakdown[GLOBAL_ACC_R][HIT] = 0
	Total_core_cache_stats_breakdown[GLOBAL_ACC_R][HIT_RESERVED] = 0
	Total_core_cache_stats_breakdown[GLOBAL_ACC_R][MISS] = 0
	Total_core_cache_stats_breakdown[GLOBAL_ACC_R][RESERVATION_FAIL] = 0
	Total_core_cache_stats_breakdown[LOCAL_ACC_R][HIT] = 0
	Total_core_cache_stats_breakdown[LOCAL_ACC_R][HIT_RESERVED] = 0
	Total_core_cache_stats_breakdown[LOCAL_ACC_R][MISS] = 0
	Total_core_cache_stats_breakdown[LOCAL_ACC_R][RESERVATION_FAIL] = 0
	Total_core_cache_stats_breakdown[CONST_ACC_R][HIT] = 180608
	Total_core_cache_stats_breakdown[CONST_ACC_R][HIT_RESERVED] = 0
	Total_core_cache_stats_breakdown[CONST_ACC_R][MISS] = 1792
	Total_core_cache_stats_breakdown[CONST_ACC_R][RESERVATION_FAIL] = 4886
	Total_core_cache_stats_breakdown[TEXTURE_ACC_R][HIT] = 0
	Total_core_cache_stats_breakdown[TEXTURE_ACC_R][HIT_RESERVED] = 0
	Total_core_cache_stats_breakdown[TEXTURE_ACC_R][MISS] = 0
	Total_core_cache_stats_breakdown[TEXTURE_ACC_R][RESERVATION_FAIL] = 0
	Total_core_cache_stats_breakdown[GLOBAL_ACC_W][HIT] = 0
	Total_core_cache_stats_breakdown[GLOBAL_ACC_W][HIT_RESERVED] = 0
	Total_core_cache_stats_breakdown[GLOBAL_ACC_W][MISS] = 0
	Total_core_cache_stats_breakdown[GLOBAL_ACC_W][RESERVATION_FAIL] = 0
	Total_core_cache_stats_breakdown[LOCAL_ACC_W][HIT] = 0
	Total_core_cache_stats_breakdown[LOCAL_ACC_W][HIT_RESERVED] = 0
	Total_core_cache_stats_breakdown[LOCAL_ACC_W][MISS] = 0
	Total_core_cache_stats_breakdown[LOCAL_ACC_W][RESERVATION_FAIL] = 0
	Total_core_cache_stats_breakdown[L1_WRBK_ACC][HIT] = 0
	Total_core_cache_stats_breakdown[L1_WRBK_ACC][HIT_RESERVED] = 0
	Total_core_cache_stats_breakdown[L1_WRBK_ACC][MISS] = 0
	Total_core_cache_stats_breakdown[L1_WRBK_ACC][RESERVATION_FAIL] = 0
	Total_core_cache_stats_breakdown[L2_WRBK_ACC][HIT] = 0
	Total_core_cache_stats_breakdown[L2_WRBK_ACC][HIT_RESERVED] = 0
	Total_core_cache_stats_breakdown[L2_WRBK_ACC][MISS] = 0
	Total_core_cache_stats_breakdown[L2_WRBK_ACC][RESERVATION_FAIL] = 0
	Total_core_cache_stats_breakdown[INST_ACC_R][HIT] = 864267
	Total_core_cache_stats_breakdown[INST_ACC_R][HIT_RESERVED] = 0
	Total_core_cache_stats_breakdown[INST_ACC_R][MISS] = 1981
	Total_core_cache_stats_breakdown[INST_ACC_R][RESERVATION_FAIL] = 6846
	Total_core_cache_stats_breakdown[L1_WR_ALLOC_R][HIT] = 0
	Total_core_cache_stats_breakdown[L1_WR_ALLOC_R][HIT_RESERVED] = 0
	Total_core_cache_stats_breakdown[L1_WR_ALLOC_R][MISS] = 0
	Total_core_cache_stats_breakdown[L1_WR_ALLOC_R][RESERVATION_FAIL] = 0
	Total_core_cache_stats_breakdown[L2_WR_ALLOC_R][HIT] = 0
	Total_core_cache_stats_breakdown[L2_WR_ALLOC_R][HIT_RESERVED] = 0
	Total_core_cache_stats_breakdown[L2_WR_ALLOC_R][MISS] = 0
	Total_core_cache_stats_breakdown[L2_WR_ALLOC_R][RESERVATION_FAIL] = 0
	Total_core_cache_stats_breakdown[CONST_ACC_R][TOTAL_ACCESS] = 182400
	Total_core_cache_stats_breakdown[INST_ACC_R][TOTAL_ACCESS] = 866248
Shader 0 warp_id issue ditsribution:
warp_id:
0, 1, 2, 3, 4, 5, 6, 7, 8, 9, 10, 11, 12, 13, 14, 15, 16, 17, 18, 19, 20, 21, 22, 23, 24, 25, 26, 27, 28, 29, 30, 31, 32, 33, 34, 35, 36, 37, 38, 39, 40, 41, 42, 43, 44, 45, 46, 47, 48, 49, 50, 51, 52, 53, 54, 55, 56, 57, 58, 59, 60, 61, 62, 63, 
distro:
1305, 1308, 1311, 1311, 1312, 1311, 1313, 1314, 1226, 1219, 1226, 1218, 1225, 1216, 1224, 1220, 1226, 1220, 1227, 1223, 1227, 1223, 1228, 1221, 1139, 1136, 1139, 1131, 1137, 1129, 1137, 1131, 1049, 1045, 1049, 1045, 1048, 1044, 1052, 1046, 1053, 1043, 1050, 1044, 1046, 1046, 1046, 1040, 1009, 1002, 1006, 998, 1005, 999, 1005, 997, 1011, 1002, 1010, 1005, 1007, 1003, 1009, 1001, 
gpgpu_n_tot_thrd_icount = 52521472
gpgpu_n_tot_w_icount = 1641296
gpgpu_n_stall_shd_mem = 590616
gpgpu_n_mem_read_local = 0
gpgpu_n_mem_write_local = 0
gpgpu_n_mem_read_global = 203287
gpgpu_n_mem_write_global = 67800
gpgpu_n_mem_texture = 0
gpgpu_n_mem_const = 28
gpgpu_n_load_insn  = 4317600
gpgpu_n_store_insn = 1440000
gpgpu_n_shmem_insn = 0
gpgpu_n_tex_insn = 0
gpgpu_n_const_mem_insn = 0
gpgpu_n_param_mem_insn = 5836800
gpgpu_n_shmem_bkconflict = 0
gpgpu_n_cache_bkconflict = 0
gpgpu_n_intrawarp_mshr_merge = 0
gpgpu_n_cmem_portconflict = 4886
gpgpu_stall_shd_mem[c_mem][bk_conf] = 4886
gpgpu_stall_shd_mem[c_mem][mshr_rc] = 0
gpgpu_stall_shd_mem[c_mem][icnt_rc] = 0
gpgpu_stall_shd_mem[c_mem][data_port_stall] = 0
gpgpu_stall_shd_mem[t_mem][mshr_rc] = 0
gpgpu_stall_shd_mem[t_mem][icnt_rc] = 0
gpgpu_stall_shd_mem[t_mem][data_port_stall] = 0
gpgpu_stall_shd_mem[s_mem][bk_conf] = 0
gpgpu_stall_shd_mem[gl_mem][bk_conf] = 0
gpgpu_stall_shd_mem[gl_mem][coal_stall] = 416219
gpgpu_stall_shd_mem[gl_mem][data_port_stall] = 0
gpgpu_stall_shd_mem[g_mem_ld][mshr_rc] = 0
gpgpu_stall_shd_mem[g_mem_ld][icnt_rc] = 169511
gpgpu_stall_shd_mem[g_mem_ld][wb_icnt_rc] = 0
gpgpu_stall_shd_mem[g_mem_ld][wb_rsrv_fail] = 0
gpgpu_stall_shd_mem[g_mem_st][mshr_rc] = 0
gpgpu_stall_shd_mem[g_mem_st][icnt_rc] = 0
gpgpu_stall_shd_mem[g_mem_st][wb_icnt_rc] = 0
gpgpu_stall_shd_mem[g_mem_st][wb_rsrv_fail] = 0
gpgpu_stall_shd_mem[l_mem_ld][mshr_rc] = 0
gpgpu_stall_shd_mem[l_mem_ld][icnt_rc] = 0
gpgpu_stall_shd_mem[l_mem_ld][wb_icnt_rc] = 0
gpgpu_stall_shd_mem[l_mem_ld][wb_rsrv_fail] = 0
gpgpu_stall_shd_mem[l_mem_st][mshr_rc] = 0
gpgpu_stall_shd_mem[l_mem_st][icnt_rc] = 0
gpgpu_stall_shd_mem[l_mem_ld][wb_icnt_rc] = 0
gpgpu_stall_shd_mem[l_mem_ld][wb_rsrv_fail] = 0
gpu_reg_bank_conflict_stalls = 0
Warp Occupancy Distribution:
Stall:340822	W0_Idle:26609958	W0_Scoreboard:62699493	W1:0	W2:0	W3:0	W4:0	W5:0	W6:0	W7:0	W8:0	W9:0	W10:0	W11:0	W12:0	W13:0	W14:0	W15:0	W16:21592	W17:0	W18:0	W19:0	W20:0	W21:0	W22:0	W23:0	W24:0	W25:0	W26:0	W27:0	W28:0	W29:0	W30:0	W31:0	W32:1619704
traffic_breakdown_coretomem[CONST_ACC_R] = 224 {8:28,}
traffic_breakdown_coretomem[GLOBAL_ACC_R] = 1626296 {8:203287,}
traffic_breakdown_coretomem[GLOBAL_ACC_W] = 6302400 {72:45600,136:22200,}
traffic_breakdown_coretomem[INST_ACC_R] = 672 {8:84,}
traffic_breakdown_memtocore[CONST_ACC_R] = 2016 {72:28,}
traffic_breakdown_memtocore[GLOBAL_ACC_R] = 18893112 {40:38,72:136723,136:66526,}
traffic_breakdown_memtocore[GLOBAL_ACC_W] = 542400 {8:67800,}
traffic_breakdown_memtocore[INST_ACC_R] = 11424 {136:84,}
maxmrqlatency = 887 
maxdqlatency = 0 
maxmflatency = 124085 
averagemflatency = 4662 
max_icnt2mem_latency = 123803 
max_icnt2sh_latency = 1846288 
mrq_lat_table:28740 	2227 	3106 	5314 	9735 	13314 	18954 	21709 	18401 	2114 	0 	0 	0 	0 	0 	0 	0 	0 	0 	0 	0 	0 	0 	0 	0 	0 	0 	0 	0 	0 	0 	0 	
dq_lat_table:0 	0 	0 	0 	0 	0 	0 	0 	0 	0 	0 	0 	0 	0 	0 	0 	0 	0 	0 	0 	0 	0 	0 	0 	0 	0 	0 	0 	0 	0 	0 	0 	
mf_lat_table:0 	0 	0 	0 	0 	0 	0 	74619 	74437 	80930 	7514 	1062 	754 	5109 	9420 	16511 	759 	0 	0 	0 	0 	0 	0 	0 	0 	0 	0 	0 	0 	0 	0 	0 	
icnt2mem_lat_table:0 	0 	38899 	25404 	19970 	9003 	53319 	39768 	36092 	14990 	145 	1056 	754 	5109 	9565 	16366 	759 	0 	0 	0 	0 	0 	0 	0 	
icnt2sh_lat_table:0 	0 	43172 	87993 	66441 	5528 	181 	0 	0 	0 	0 	0 	0 	0 	0 	0 	0 	0 	12278 	18922 	36600 	0 	0 	0 	
mf_lat_pw_table:0 	0 	0 	0 	0 	0 	0 	28 	60 	36 	1 	13 	6 	18 	26 	19 	6 	0 	0 	0 	0 	0 	0 	0 	0 	0 	0 	0 	0 	0 	0 	0 	
maximum concurrent accesses to same row:
dram[0]:        16        16        16        16        16        16        17        17        16        16        16        16        16        16        16        16 
dram[1]:        16        16        16        16        16        16        17        17        16        16        16        16        16        16        16        16 
dram[2]:        16        16        16        16        16        16        17        17        16        16        16        16        16        16        16        16 
dram[3]:        16        16        16        16        16        16        16        16        16        16        16        16        16        16        16        16 
dram[4]:        16        16        16        16        16        16        16        16        16        16        16        16        16        16        16        16 
dram[5]:        16        16        16        16        16        16        16        16        16        16        16        16        16        16        16        16 
dram[6]:        16        16        16        16        16        16        16        16        16        16        16        16        16        16        16        16 
dram[7]:        16        16        16        16        16        16        16        16        16        16        16        16        16        16        16        16 
dram[8]:        16        16        16        16        16        16        16        16        16        16        16        16        16        16        16        16 
dram[9]:        16        16        16        16        16        16        16        16        16        16        16        16        16        16        16        16 
dram[10]:        16        16        16        16        16        16        16        16        16        16        16        16        16        16        16        16 
maximum service time to same row:
dram[0]:    249614    249255    249543    249736    250003    250349    249663    249824    249617    249615    249450    249202    247503    247490    248209    248503 
dram[1]:    249935    249762    249792    249672    250458    250576    249915    249782    249781    249537    249046    249079    247640    247621    248583    248717 
dram[2]:    249913    249897    249989    250089    250180    250467    249873    249781    249619    249548    249185    249149    247596    247597    248503    248649 
dram[3]:    249017    249367    250056    249837    250303    249930    249783    249824    249794    249550    249378    249254    247649    247600    248865    248766 
dram[4]:    249615    249710    249854    249330    249951    249905    249589    249646    249671    249549    249264    249200    247719    247682    248559    248881 
dram[5]:    249636    250003    249929    250116    250187    250371    249784    249870    249532    249541    249175    249422    247566    247535    248678    248266 
dram[6]:    249371    249232    250091    249612    250262    250071    249762    249756    249543    249632    249041    249017    247647    247632    248592    248759 
dram[7]:    249582    249349    249641    249706    250275    249855    249650    249751    249625    249773    249268    249473    247832    247581    248526    248462 
dram[8]:    249549    249646    249883    249492    250336    250219    249872    249837    249519    249677    249441    249221    247727    247606    248314    248280 
dram[9]:    249802    249468    249942    249384    250447    249267    249870    249850    249674    249765    249064    249141    247754    247697    248481    248860 
dram[10]:    249448    249400    249731    249679    250128    250222    249751    249810    249578    249723    249165    249359    247625    247670    248739    248759 
average row accesses per activate:
dram[0]:  6.130435  6.579439  6.342342  6.901961  6.663462  7.000000  6.579439  6.342342  6.121739  6.458715  6.641510  6.285714  7.237113  6.950495  7.257732  7.489362 
dram[1]:  6.175438  6.458715  6.400000  6.769231  5.872881  6.300000  7.040000  6.342342  6.230089  6.970297  5.507812  5.632000  6.750000  7.389474  6.834951  6.704762 
dram[2]:  6.175438  6.769231  6.704762  6.769231  6.407407  6.851485  5.818182  6.409091  6.704762  6.769231  6.342342  6.518518  7.153061  6.740385  7.111111  6.970297 
dram[3]:  6.400000  7.257732  7.040000  6.342342  6.407407  6.290909  6.342342  6.704762  6.285714  6.641510  6.641510  6.579439  6.203540  6.490741  6.769231  6.769231 
dram[4]:  6.342342  6.342342  6.175438  6.400000  5.914530  6.407407  5.966102  6.017094  6.458715  6.285714  6.285714  6.458715  6.431193  7.226804  7.050000  6.409091 
dram[5]:  6.285714  7.183673  6.175438  7.333333  6.017391  6.348624  7.111111  6.400000  6.704762  6.641510  6.518518  6.121739  6.315315  6.676190  7.343750  6.970297 
dram[6]:  5.723577  6.704762  6.400000  6.641510  6.252252  6.141593  6.068965  6.769231  6.518518  6.769231  5.866667  6.121739  6.551402  6.613207  6.579439  6.704762 
dram[7]:  5.866667  6.834951  6.121739  6.704762  6.196429  6.252252  6.458715  6.834951  5.866667  6.285714  5.915967  6.834951  5.890756  6.490741  6.175438  6.230089 
dram[8]:  6.901961  6.970297  6.518518  6.230089  6.425926  7.010101  7.040000  7.489362  6.769231  6.641510  6.342342  6.579439  7.548387  7.020000  7.040000  7.257732 
dram[9]:  6.175438  6.342342  6.230089  6.285714  6.366972  6.309091  6.641510  6.579439  6.518518  6.342342  5.500000  6.121739  6.622642  6.815534  6.121739  6.704762 
dram[10]:  6.458715  6.068965  6.579439  6.579439  5.831933  6.940000  6.641510  6.175438  6.704762  6.017094  6.342342  5.966102  6.267857  6.750000  6.970297  6.901961 
average row locality = 123614/19020 = 6.499159
number of total memory accesses made:
dram[0]:         0         0         0         0         0         0         0         0         0         0         0         0         0         0         0         0 
dram[1]:         0         0         0         0         0         0         0         0         0         0         0         0         0         0         0         0 
dram[2]:         0         0         0         0         0         0         0         0         0         0         0         0         0         0         0         0 
dram[3]:         0         0         0         0         0         0         0         0         0         0         0         0         0         0         0         0 
dram[4]:         0         0         0         0         0         0         0         0         0         0         0         0         0         0         0         0 
dram[5]:         0         0         0         0         0         0         0         0         0         0         0         0         0         0         0         0 
dram[6]:         0         0         0         0         0         0         0         0         0         0         0         0         0         0         0         0 
dram[7]:         0         0         0         0         0         0         0         0         0         0         0         0         0         0         0         0 
dram[8]:         0         0         0         0         0         0         0         0         0         0         0         0         0         0         0         0 
dram[9]:         0         0         0         0         0         0         0         0         0         0         0         0         0         0         0         0 
dram[10]:         0         0         0         0         0         0         0         0         0         0         0         0         0         0         0         0 
total accesses: 0
min_bank_accesses = 0!
min_chip_accesses = 0!
number of total read accesses:
dram[0]:       513       512       512       512       509       509       512       512       512       512       512       512       510       510       512       512 
dram[1]:       512       512       512       512       509       509       512       512       512       512       513       512       510       510       512       512 
dram[2]:       512       512       512       512       509       509       512       512       512       512       512       512       509       509       512       512 
dram[3]:       512       512       512       512       509       509       512       512       512       512       512       512       509       509       512       512 
dram[4]:       512       512       512       512       509       509       512       512       512       512       512       512       509       509       513       513 
dram[5]:       512       512       512       512       509       509       512       512       512       512       512       512       509       509       513       512 
dram[6]:       512       512       512       512       510       510       512       512       512       512       512       512       509       509       512       512 
dram[7]:       512       512       512       512       510       510       512       512       512       512       512       512       509       509       512       512 
dram[8]:       512       512       512       512       510       510       512       512       512       512       512       512       510       510       512       512 
dram[9]:       512       512       512       512       510       510       512       512       512       512       512       512       510       510       512       512 
dram[10]:       512       512       512       512       510       510       512       512       512       512       512       512       510       510       512       512 
total reads: 90005
bank skew: 513/509 = 1.01
chip skew: 8184/8180 = 1.00
number of total write accesses:
dram[0]:       192       192       192       192       184       184       192       192       192       192       192       192       192       192       192       192 
dram[1]:       192       192       192       192       184       184       192       192       192       192       192       192       192       192       192       192 
dram[2]:       192       192       192       192       183       183       192       193       192       192       192       192       192       192       192       192 
dram[3]:       192       192       192       192       183       183       192       192       192       192       192       192       192       192       192       192 
dram[4]:       192       192       192       192       183       183       192       192       192       192       192       192       192       192       192       192 
dram[5]:       192       192       192       192       183       183       192       192       192       192       192       192       192       192       192       192 
dram[6]:       192       192       192       192       184       184       192       192       192       192       192       192       192       192       192       192 
dram[7]:       192       192       192       192       184       184       192       192       192       192       192       192       192       192       192       192 
dram[8]:       192       192       192       192       184       184       192       192       192       192       192       192       192       192       192       192 
dram[9]:       192       192       192       192       184       184       192       192       192       192       192       192       192       192       192       192 
dram[10]:       192       192       192       192       184       184       192       192       192       192       192       192       192       192       192       192 
total reads: 33609
bank skew: 193/183 = 1.05
chip skew: 3056/3054 = 1.00
average mf latency per bank:
dram[0]:       8369      8478      9538      9687     12945     13173     12094     12028      9391      9558      9001      8809      8110      8086     12023     11856
dram[1]:       8801      8867      9450      9867     12530     12110     12049     12363      9383      9305     10024      8972      8016      8524     11699     11906
dram[2]:       8830      8773      9983      9608     12314     12350     12514     12677      9163      9142      8753      8857      8598      8563     11605     11493
dram[3]:       8672      8778      9555      9701     12370     12443     12577     12727      9379      9539      8843      8994      8273      7777     11352     11479
dram[4]:       8898      8851      9573      9458     13065     12634     12565     12437      9667      9331      8951      8904      7873      8263     11370     11587
dram[5]:       8606      8380      9636      9658     12811     12546     12553     12866      9328      9335      8796      8650      8574      8467     11369     11308
dram[6]:       8343      8218      9810      9820     12549     12787     12750     12448      9331      9247      9599      9585      8482      7997     11450     11684
dram[7]:       8624      8742      9813      9549     12963     12701     12553     12449      9266      9143      9512      9603      7886      7884     11796     12024
dram[8]:       8937      9111      9690      9699     12450     12643     12269     12094      9149      9263     10058      9858      7919      8047     12106     11563
dram[9]:       8702      8651      9504      9626     12277     12573     12053     12204      9157      9213      9890      9490      8147      8442     11913     11717
dram[10]:       8731      8780      9560      9468     13053     13266     12055     11837      9245      9432      9100      9308      8377      8439     11500     11655
maximum mf latency per bank:
dram[0]:     123698    123691     63791     63812    123671    123691    123982    123925     63460     63481     63577     63582    123847    123792    123701    123701
dram[1]:     123688    123694     63775     63780    123674    123678    123918    124018     63454     63456     63578     63583    123783    123989    123693    123676
dram[2]:     123690    123698     63800     63813    123679    123679    124049    124078     63456     63443     63579     63583    123811    123819    123692    123683
dram[3]:     123699    123697     63775     63748    123685    123678    124029    123949     63448     63464     63580     63586    123856    123794    123677    123667
dram[4]:     123702    123695     63766     63770    123682    123693    123952    123990     63420     63460     63578     63579    123834    123960    123702    123705
dram[5]:     123688     63810     63740     63885    123679    123696    123893    124085     63421     63417     63578     63582    123961    123835    123696    123706
dram[6]:      63703     63849     63763     63793    123688    123698    124082    124017     63426     63419    123797    123802    123842    123843    123696    123697
dram[7]:     123700    123681     63754     63772    123687    123693    123939    123989     63432     63417    123727    123751    123810    123849    123701    123696
dram[8]:     123676    123688     63746     63820    123684    123703    123892    123917     63417     63399    124041    123802    123835    123772    123698    123697
dram[9]:     123683    123688     63817     63760    123676    123683    123928    124031     63404     63429    123795    123833    123974    123983    123695    123706
dram[10]:     123698    123701     63735     63765    123687    123689    123914    123961     63431     63425    123754    123797    123816    123855    123706    123696
Memory Partition 0: 
Cache L2_bank_000:
MSHR contents

Cache L2_bank_001:
MSHR contents

In Dram Latency Queue (total = 0): 
DRAM[0]: 16 bks, busW=4 BL=8 CL=12, tRRD=2 tCCD=6, tRCD=12 tRAS=28 tRP=12 tRC=40
n_cmd=3015787 n_nop=2967471 n_act=1688 n_pre=1672 n_req=11239 n_rd=32732 n_write=12224 bw_util=0.02981
n_activity=100276 dram_eff=0.8966
bk0: 2052a 2981782i bk1: 2048a 2981732i bk2: 2048a 2980397i bk3: 2048a 2981103i bk4: 2036a 2984684i bk5: 2036a 2986220i bk6: 2048a 2984998i bk7: 2048a 2983359i bk8: 2048a 2981633i bk9: 2048a 2980995i bk10: 2048a 2979755i bk11: 2048a 2976982i bk12: 2040a 2983426i bk13: 2040a 2980584i bk14: 2048a 2979021i bk15: 2048a 2977414i 
dram_util_bins: 0 0 0 0 0 0 0 0 0 0
dram_eff_bins: 0 0 0 0 0 0 0 0 0 0
mrqq: max=64 avg=0.812672
Memory Partition 1: 
Cache L2_bank_002:
MSHR contents

Cache L2_bank_003:
MSHR contents

In Dram Latency Queue (total = 0): 
DRAM[1]: 16 bks, busW=4 BL=8 CL=12, tRRD=2 tCCD=6, tRCD=12 tRAS=28 tRP=12 tRC=40
n_cmd=3015787 n_nop=2967347 n_act=1750 n_pre=1734 n_req=11239 n_rd=32732 n_write=12224 bw_util=0.02981
n_activity=100443 dram_eff=0.8952
bk0: 2048a 2981824i bk1: 2048a 2980944i bk2: 2048a 2979892i bk3: 2048a 2977645i bk4: 2036a 2985013i bk5: 2036a 2982772i bk6: 2048a 2985408i bk7: 2048a 2983291i bk8: 2048a 2981255i bk9: 2048a 2981713i bk10: 2052a 2980270i bk11: 2048a 2976707i bk12: 2040a 2982689i bk13: 2040a 2981868i bk14: 2048a 2981858i bk15: 2048a 2979570i 
dram_util_bins: 0 0 0 0 0 0 0 0 0 0
dram_eff_bins: 0 0 0 0 0 0 0 0 0 0
mrqq: max=64 avg=0.797609
Memory Partition 2: 
Cache L2_bank_004:
MSHR contents

Cache L2_bank_005:
MSHR contents

In Dram Latency Queue (total = 0): 
DRAM[2]: 16 bks, busW=4 BL=8 CL=12, tRRD=2 tCCD=6, tRCD=12 tRAS=28 tRP=12 tRC=40
n_cmd=3015787 n_nop=2967471 n_act=1697 n_pre=1681 n_req=11235 n_rd=32720 n_write=12218 bw_util=0.0298
n_activity=99854 dram_eff=0.9001
bk0: 2048a 2982604i bk1: 2048a 2981682i bk2: 2048a 2982556i bk3: 2048a 2980608i bk4: 2036a 2983380i bk5: 2036a 2981838i bk6: 2048a 2982754i bk7: 2048a 2982357i bk8: 2048a 2982420i bk9: 2048a 2979788i bk10: 2048a 2979097i bk11: 2048a 2979390i bk12: 2036a 2983437i bk13: 2036a 2979926i bk14: 2048a 2980385i bk15: 2048a 2979126i 
dram_util_bins: 0 0 0 0 0 0 0 0 0 0
dram_eff_bins: 0 0 0 0 0 0 0 0 0 0
mrqq: max=64 avg=0.810884
Memory Partition 3: 
Cache L2_bank_006:
MSHR contents

Cache L2_bank_007:
MSHR contents

In Dram Latency Queue (total = 0): 
DRAM[3]: 16 bks, busW=4 BL=8 CL=12, tRRD=2 tCCD=6, tRCD=12 tRAS=28 tRP=12 tRC=40
n_cmd=3015787 n_nop=2967443 n_act=1712 n_pre=1696 n_req=11234 n_rd=32720 n_write=12216 bw_util=0.0298
n_activity=100111 dram_eff=0.8977
bk0: 2048a 2981550i bk1: 2048a 2983890i bk2: 2048a 2984229i bk3: 2048a 2981731i bk4: 2036a 2986564i bk5: 2036a 2984636i bk6: 2048a 2983909i bk7: 2048a 2984505i bk8: 2048a 2981812i bk9: 2048a 2979909i bk10: 2048a 2979769i bk11: 2048a 2980439i bk12: 2036a 2979585i bk13: 2036a 2981304i bk14: 2048a 2979702i bk15: 2048a 2978644i 
dram_util_bins: 0 0 0 0 0 0 0 0 0 0
dram_eff_bins: 0 0 0 0 0 0 0 0 0 0
mrqq: max=64 avg=0.787831
Memory Partition 4: 
Cache L2_bank_008:
MSHR contents

Cache L2_bank_009:
MSHR contents

In Dram Latency Queue (total = 0): 
DRAM[4]: 16 bks, busW=4 BL=8 CL=12, tRRD=2 tCCD=6, tRCD=12 tRAS=28 tRP=12 tRC=40
n_cmd=3015787 n_nop=2967331 n_act=1764 n_pre=1748 n_req=11236 n_rd=32728 n_write=12216 bw_util=0.02981
n_activity=100301 dram_eff=0.8962
bk0: 2048a 2982174i bk1: 2048a 2982309i bk2: 2048a 2983606i bk3: 2048a 2980816i bk4: 2036a 2984403i bk5: 2036a 2983306i bk6: 2048a 2984858i bk7: 2048a 2983260i bk8: 2048a 2981593i bk9: 2048a 2980808i bk10: 2048a 2980085i bk11: 2048a 2977191i bk12: 2036a 2983629i bk13: 2036a 2982331i bk14: 2052a 2984299i bk15: 2052a 2978604i 
dram_util_bins: 0 0 0 0 0 0 0 0 0 0
dram_eff_bins: 0 0 0 0 0 0 0 0 0 0
mrqq: max=64 avg=0.781119
Memory Partition 5: 
Cache L2_bank_010:
MSHR contents

Cache L2_bank_011:
MSHR contents

In Dram Latency Queue (total = 0): 
DRAM[5]: 16 bks, busW=4 BL=8 CL=12, tRRD=2 tCCD=6, tRCD=12 tRAS=28 tRP=12 tRC=40
n_cmd=3015787 n_nop=2967463 n_act=1700 n_pre=1684 n_req=11235 n_rd=32724 n_write=12216 bw_util=0.0298
n_activity=100171 dram_eff=0.8973
bk0: 2048a 2983068i bk1: 2048a 2981952i bk2: 2048a 2980114i bk3: 2048a 2981095i bk4: 2036a 2984054i bk5: 2036a 2980222i bk6: 2048a 2984729i bk7: 2048a 2982813i bk8: 2048a 2981445i bk9: 2048a 2980428i bk10: 2048a 2979184i bk11: 2048a 2978554i bk12: 2036a 2983153i bk13: 2036a 2981502i bk14: 2052a 2980266i bk15: 2048a 2979983i 
dram_util_bins: 0 0 0 0 0 0 0 0 0 0
dram_eff_bins: 0 0 0 0 0 0 0 0 0 0
mrqq: max=64 avg=0.827524
Memory Partition 6: 
Cache L2_bank_012:
MSHR contents

Cache L2_bank_013:
MSHR contents

In Dram Latency Queue (total = 0): 
DRAM[6]: 16 bks, busW=4 BL=8 CL=12, tRRD=2 tCCD=6, tRCD=12 tRAS=28 tRP=12 tRC=40
n_cmd=3015787 n_nop=2967331 n_act=1760 n_pre=1744 n_req=11238 n_rd=32728 n_write=12224 bw_util=0.02981
n_activity=100248 dram_eff=0.8968
bk0: 2048a 2981082i bk1: 2048a 2981846i bk2: 2048a 2982420i bk3: 2048a 2980888i bk4: 2040a 2984204i bk5: 2040a 2982489i bk6: 2048a 2984438i bk7: 2048a 2982954i bk8: 2048a 2981560i bk9: 2048a 2979167i bk10: 2048a 2975606i bk11: 2048a 2977645i bk12: 2036a 2980605i bk13: 2036a 2979635i bk14: 2048a 2979800i bk15: 2048a 2978179i 
dram_util_bins: 0 0 0 0 0 0 0 0 0 0
dram_eff_bins: 0 0 0 0 0 0 0 0 0 0
mrqq: max=64 avg=0.779695
Memory Partition 7: 
Cache L2_bank_014:
MSHR contents

Cache L2_bank_015:
MSHR contents

In Dram Latency Queue (total = 0): 
DRAM[7]: 16 bks, busW=4 BL=8 CL=12, tRRD=2 tCCD=6, tRCD=12 tRAS=28 tRP=12 tRC=40
n_cmd=3015787 n_nop=2967279 n_act=1786 n_pre=1770 n_req=11238 n_rd=32728 n_write=12224 bw_util=0.02981
n_activity=100647 dram_eff=0.8933
bk0: 2048a 2982555i bk1: 2048a 2979701i bk2: 2048a 2982305i bk3: 2048a 2980828i bk4: 2040a 2984300i bk5: 2040a 2981368i bk6: 2048a 2983674i bk7: 2048a 2983187i bk8: 2048a 2981410i bk9: 2048a 2980200i bk10: 2048a 2979635i bk11: 2048a 2979880i bk12: 2036a 2979869i bk13: 2036a 2979441i bk14: 2048a 2978463i bk15: 2048a 2979198i 
dram_util_bins: 0 0 0 0 0 0 0 0 0 0
dram_eff_bins: 0 0 0 0 0 0 0 0 0 0
mrqq: max=64 avg=0.803106
Memory Partition 8: 
Cache L2_bank_016:
MSHR contents

Cache L2_bank_017:
MSHR contents

In Dram Latency Queue (total = 0): 
DRAM[8]: 16 bks, busW=4 BL=8 CL=12, tRRD=2 tCCD=6, tRCD=12 tRAS=28 tRP=12 tRC=40
n_cmd=3015787 n_nop=2967557 n_act=1643 n_pre=1627 n_req=11240 n_rd=32736 n_write=12224 bw_util=0.02982
n_activity=100092 dram_eff=0.8984
bk0: 2048a 2982307i bk1: 2048a 2980301i bk2: 2048a 2981047i bk3: 2048a 2978816i bk4: 2040a 2982405i bk5: 2040a 2980939i bk6: 2048a 2985529i bk7: 2048a 2985719i bk8: 2048a 2981046i bk9: 2048a 2979190i bk10: 2048a 2979602i bk11: 2048a 2979734i bk12: 2040a 2984499i bk13: 2040a 2982341i bk14: 2048a 2979887i bk15: 2048a 2980288i 
dram_util_bins: 0 0 0 0 0 0 0 0 0 0
dram_eff_bins: 0 0 0 0 0 0 0 0 0 0
mrqq: max=64 avg=0.836617
Memory Partition 9: 
Cache L2_bank_018:
MSHR contents

Cache L2_bank_019:
MSHR contents

In Dram Latency Queue (total = 0): 
DRAM[9]: 16 bks, busW=4 BL=8 CL=12, tRRD=2 tCCD=6, tRCD=12 tRAS=28 tRP=12 tRC=40
n_cmd=3015787 n_nop=2967297 n_act=1773 n_pre=1757 n_req=11240 n_rd=32736 n_write=12224 bw_util=0.02982
n_activity=100340 dram_eff=0.8962
bk0: 2048a 2980914i bk1: 2048a 2981795i bk2: 2048a 2981174i bk3: 2048a 2979517i bk4: 2040a 2985146i bk5: 2040a 2982038i bk6: 2048a 2984011i bk7: 2048a 2981697i bk8: 2048a 2979455i bk9: 2048a 2979032i bk10: 2048a 2979043i bk11: 2048a 2977837i bk12: 2040a 2983658i bk13: 2040a 2980482i bk14: 2048a 2978593i bk15: 2048a 2977721i 
dram_util_bins: 0 0 0 0 0 0 0 0 0 0
dram_eff_bins: 0 0 0 0 0 0 0 0 0 0
mrqq: max=64 avg=0.801453
Memory Partition 10: 
Cache L2_bank_020:
MSHR contents

Cache L2_bank_021:
MSHR contents

In Dram Latency Queue (total = 0): 
DRAM[10]: 16 bks, busW=4 BL=8 CL=12, tRRD=2 tCCD=6, tRCD=12 tRAS=28 tRP=12 tRC=40
n_cmd=3015787 n_nop=2967347 n_act=1748 n_pre=1732 n_req=11240 n_rd=32736 n_write=12224 bw_util=0.02982
n_activity=100107 dram_eff=0.8982
bk0: 2048a 2983222i bk1: 2048a 2980537i bk2: 2048a 2982191i bk3: 2048a 2980884i bk4: 2040a 2982006i bk5: 2040a 2982671i bk6: 2048a 2985027i bk7: 2048a 2980338i bk8: 2048a 2982770i bk9: 2048a 2980500i bk10: 2048a 2979153i bk11: 2048a 2976129i bk12: 2040a 2981155i bk13: 2040a 2979553i bk14: 2048a 2980108i bk15: 2048a 2978058i 
dram_util_bins: 0 0 0 0 0 0 0 0 0 0
dram_eff_bins: 0 0 0 0 0 0 0 0 0 0
mrqq: max=64 avg=0.833756

========= L2 cache stats =========
L2_cache_bank[0]: Access = 12344, Miss = 4092, Miss_rate = 0.331, Pending_hits = 3686, Reservation_fails = 0
L2_cache_bank[1]: Access = 12320, Miss = 4091, Miss_rate = 0.332, Pending_hits = 3856, Reservation_fails = 0
L2_cache_bank[2]: Access = 12358, Miss = 4092, Miss_rate = 0.331, Pending_hits = 3762, Reservation_fails = 0
L2_cache_bank[3]: Access = 12318, Miss = 4091, Miss_rate = 0.332, Pending_hits = 3796, Reservation_fails = 0
L2_cache_bank[4]: Access = 12314, Miss = 4090, Miss_rate = 0.332, Pending_hits = 3634, Reservation_fails = 0
L2_cache_bank[5]: Access = 12318, Miss = 4090, Miss_rate = 0.332, Pending_hits = 3767, Reservation_fails = 0
L2_cache_bank[6]: Access = 12321, Miss = 4090, Miss_rate = 0.332, Pending_hits = 3719, Reservation_fails = 0
L2_cache_bank[7]: Access = 12321, Miss = 4090, Miss_rate = 0.332, Pending_hits = 3789, Reservation_fails = 0
L2_cache_bank[8]: Access = 12345, Miss = 4091, Miss_rate = 0.331, Pending_hits = 3703, Reservation_fails = 0
L2_cache_bank[9]: Access = 12347, Miss = 4091, Miss_rate = 0.331, Pending_hits = 3744, Reservation_fails = 0
L2_cache_bank[10]: Access = 12351, Miss = 4091, Miss_rate = 0.331, Pending_hits = 3767, Reservation_fails = 0
L2_cache_bank[11]: Access = 12322, Miss = 4090, Miss_rate = 0.332, Pending_hits = 3884, Reservation_fails = 0
L2_cache_bank[12]: Access = 12321, Miss = 4091, Miss_rate = 0.332, Pending_hits = 3744, Reservation_fails = 0
L2_cache_bank[13]: Access = 12319, Miss = 4091, Miss_rate = 0.332, Pending_hits = 3724, Reservation_fails = 0
L2_cache_bank[14]: Access = 12323, Miss = 4091, Miss_rate = 0.332, Pending_hits = 3764, Reservation_fails = 0
L2_cache_bank[15]: Access = 12323, Miss = 4091, Miss_rate = 0.332, Pending_hits = 3854, Reservation_fails = 0
L2_cache_bank[16]: Access = 12324, Miss = 4092, Miss_rate = 0.332, Pending_hits = 3725, Reservation_fails = 0
L2_cache_bank[17]: Access = 12320, Miss = 4092, Miss_rate = 0.332, Pending_hits = 3785, Reservation_fails = 0
L2_cache_bank[18]: Access = 12322, Miss = 4092, Miss_rate = 0.332, Pending_hits = 3717, Reservation_fails = 0
L2_cache_bank[19]: Access = 12324, Miss = 4092, Miss_rate = 0.332, Pending_hits = 3825, Reservation_fails = 0
L2_cache_bank[20]: Access = 12324, Miss = 4092, Miss_rate = 0.332, Pending_hits = 3676, Reservation_fails = 0
L2_cache_bank[21]: Access = 12320, Miss = 4092, Miss_rate = 0.332, Pending_hits = 3848, Reservation_fails = 0
L2_total_cache_accesses = 271199
L2_total_cache_misses = 90005
L2_total_cache_miss_rate = 0.3319
L2_total_cache_pending_hits = 82769
L2_total_cache_reservation_fails = 0
L2_total_cache_breakdown:
	L2_cache_stats_breakdown[GLOBAL_ACC_R][HIT] = 30663
	L2_cache_stats_breakdown[GLOBAL_ACC_R][HIT_RESERVED] = 82660
	L2_cache_stats_breakdown[GLOBAL_ACC_R][MISS] = 89964
	L2_cache_stats_breakdown[GLOBAL_ACC_R][RESERVATION_FAIL] = 0
	L2_cache_stats_breakdown[LOCAL_ACC_R][HIT] = 0
	L2_cache_stats_breakdown[LOCAL_ACC_R][HIT_RESERVED] = 0
	L2_cache_stats_breakdown[LOCAL_ACC_R][MISS] = 0
	L2_cache_stats_breakdown[LOCAL_ACC_R][RESERVATION_FAIL] = 0
	L2_cache_stats_breakdown[CONST_ACC_R][HIT] = 0
	L2_cache_stats_breakdown[CONST_ACC_R][HIT_RESERVED] = 27
	L2_cache_stats_breakdown[CONST_ACC_R][MISS] = 1
	L2_cache_stats_breakdown[CONST_ACC_R][RESERVATION_FAIL] = 0
	L2_cache_stats_breakdown[TEXTURE_ACC_R][HIT] = 0
	L2_cache_stats_breakdown[TEXTURE_ACC_R][HIT_RESERVED] = 0
	L2_cache_stats_breakdown[TEXTURE_ACC_R][MISS] = 0
	L2_cache_stats_breakdown[TEXTURE_ACC_R][RESERVATION_FAIL] = 0
	L2_cache_stats_breakdown[GLOBAL_ACC_W][HIT] = 67762
	L2_cache_stats_breakdown[GLOBAL_ACC_W][HIT_RESERVED] = 1
	L2_cache_stats_breakdown[GLOBAL_ACC_W][MISS] = 37
	L2_cache_stats_breakdown[GLOBAL_ACC_W][RESERVATION_FAIL] = 0
	L2_cache_stats_breakdown[LOCAL_ACC_W][HIT] = 0
	L2_cache_stats_breakdown[LOCAL_ACC_W][HIT_RESERVED] = 0
	L2_cache_stats_breakdown[LOCAL_ACC_W][MISS] = 0
	L2_cache_stats_breakdown[LOCAL_ACC_W][RESERVATION_FAIL] = 0
	L2_cache_stats_breakdown[L1_WRBK_ACC][HIT] = 0
	L2_cache_stats_breakdown[L1_WRBK_ACC][HIT_RESERVED] = 0
	L2_cache_stats_breakdown[L1_WRBK_ACC][MISS] = 0
	L2_cache_stats_breakdown[L1_WRBK_ACC][RESERVATION_FAIL] = 0
	L2_cache_stats_breakdown[L2_WRBK_ACC][HIT] = 0
	L2_cache_stats_breakdown[L2_WRBK_ACC][HIT_RESERVED] = 0
	L2_cache_stats_breakdown[L2_WRBK_ACC][MISS] = 0
	L2_cache_stats_breakdown[L2_WRBK_ACC][RESERVATION_FAIL] = 0
	L2_cache_stats_breakdown[INST_ACC_R][HIT] = 0
	L2_cache_stats_breakdown[INST_ACC_R][HIT_RESERVED] = 81
	L2_cache_stats_breakdown[INST_ACC_R][MISS] = 3
	L2_cache_stats_breakdown[INST_ACC_R][RESERVATION_FAIL] = 0
	L2_cache_stats_breakdown[L1_WR_ALLOC_R][HIT] = 0
	L2_cache_stats_breakdown[L1_WR_ALLOC_R][HIT_RESERVED] = 0
	L2_cache_stats_breakdown[L1_WR_ALLOC_R][MISS] = 0
	L2_cache_stats_breakdown[L1_WR_ALLOC_R][RESERVATION_FAIL] = 0
	L2_cache_stats_breakdown[L2_WR_ALLOC_R][HIT] = 0
	L2_cache_stats_breakdown[L2_WR_ALLOC_R][HIT_RESERVED] = 0
	L2_cache_stats_breakdown[L2_WR_ALLOC_R][MISS] = 0
	L2_cache_stats_breakdown[L2_WR_ALLOC_R][RESERVATION_FAIL] = 0
	L2_cache_stats_breakdown[GLOBAL_ACC_R][TOTAL_ACCESS] = 203287
	L2_cache_stats_breakdown[CONST_ACC_R][TOTAL_ACCESS] = 28
	L2_cache_stats_breakdown[GLOBAL_ACC_W][TOTAL_ACCESS] = 67800
	L2_cache_stats_breakdown[INST_ACC_R][TOTAL_ACCESS] = 84
L2_cache_data_port_util = 0.011
L2_cache_fill_port_util = 0.010

icnt_total_pkts_mem_to_simt=811179
icnt_total_pkts_simt_to_mem=451199
LD_mem_lat_dist  0 0 0 0 0 0 0 0 0 0 0 0 0 0 0 0 0 0 0 0 0 0 0 0 0 0 0
ST_mem_lat_dist  0 0 0 0 0 0 0 0 0 0 0 0 0 0 0 0 0 0 0 0 0 0 0 0 0 0 0
----------------------------Interconnect-DETAILS--------------------------------
Class 0:
Packet latency average = 48.7846
	minimum = 6
	maximum = 1642
Network latency average = 30.5984
	minimum = 6
	maximum = 1385
Slowest packet = 301863
Flit latency average = 22.156
	minimum = 6
	maximum = 1385
Slowest flit = 696126
Fragmentation average = 0.0828174
	minimum = 0
	maximum = 774
Injected packet rate average = 0.00333961
	minimum = 0.00290554 (at node 6)
	maximum = 0.00380448 (at node 30)
Accepted packet rate average = 0.00333961
	minimum = 0.00290554 (at node 6)
	maximum = 0.00380448 (at node 30)
Injected flit rate average = 0.0077726
	minimum = 0.00483149 (at node 6)
	maximum = 0.0113873 (at node 38)
Accepted flit rate average= 0.0077726
	minimum = 0.00630919 (at node 32)
	maximum = 0.0092566 (at node 19)
Injected packet length average = 2.3274
Accepted packet length average = 2.3274
Total in-flight flits = 0 (0 measured)
====== Overall Traffic Statistics ======
====== Traffic class 0 ======
Packet latency average = 48.7846 (1 samples)
	minimum = 6 (1 samples)
	maximum = 1642 (1 samples)
Network latency average = 30.5984 (1 samples)
	minimum = 6 (1 samples)
	maximum = 1385 (1 samples)
Flit latency average = 22.156 (1 samples)
	minimum = 6 (1 samples)
	maximum = 1385 (1 samples)
Fragmentation average = 0.0828174 (1 samples)
	minimum = 0 (1 samples)
	maximum = 774 (1 samples)
Injected packet rate average = 0.00333961 (1 samples)
	minimum = 0.00290554 (1 samples)
	maximum = 0.00380448 (1 samples)
Accepted packet rate average = 0.00333961 (1 samples)
	minimum = 0.00290554 (1 samples)
	maximum = 0.00380448 (1 samples)
Injected flit rate average = 0.0077726 (1 samples)
	minimum = 0.00483149 (1 samples)
	maximum = 0.0113873 (1 samples)
Accepted flit rate average = 0.0077726 (1 samples)
	minimum = 0.00630919 (1 samples)
	maximum = 0.0092566 (1 samples)
Injected packet size average = 2.3274 (1 samples)
Accepted packet size average = 2.3274 (1 samples)
Hops average = 1 (1 samples)
----------------------------END-of-Interconnect-DETAILS-------------------------


gpgpu_simulation_time = 0 days, 0 hrs, 39 min, 48 sec (2388 sec)
gpgpu_simulation_rate = 20643 (inst/sec)
gpgpu_simulation_rate = 773 (cycle/sec)
GPGPU-Sim: synchronize waiting for inactive GPU simulation
GPGPU-Sim API: Stream Manager State
GPGPU-Sim: detected inactive GPU simulation thread

GPGPU-Sim PTX: cudaLaunch for 0x0x40167f (mode=performance simulation) on stream 0
GPGPU-Sim PTX: pushing kernel '_Z17fdtd_step2_kernelPfS_S_i' to stream 0, gridDim= (38,150,1) blockDim = (32,8,1) 
GPGPU-Sim uArch: Shader 17 bind to kernel 2 '_Z17fdtd_step2_kernelPfS_S_i'
GPGPU-Sim uArch: CTA/core = 8, limited by: threads
GPGPU-Sim uArch: Shader 18 bind to kernel 2 '_Z17fdtd_step2_kernelPfS_S_i'
GPGPU-Sim uArch: Shader 19 bind to kernel 2 '_Z17fdtd_step2_kernelPfS_S_i'
GPGPU-Sim uArch: Shader 20 bind to kernel 2 '_Z17fdtd_step2_kernelPfS_S_i'
GPGPU-Sim uArch: Shader 21 bind to kernel 2 '_Z17fdtd_step2_kernelPfS_S_i'
GPGPU-Sim uArch: Shader 22 bind to kernel 2 '_Z17fdtd_step2_kernelPfS_S_i'
GPGPU-Sim uArch: Shader 23 bind to kernel 2 '_Z17fdtd_step2_kernelPfS_S_i'
GPGPU-Sim uArch: Shader 24 bind to kernel 2 '_Z17fdtd_step2_kernelPfS_S_i'
GPGPU-Sim uArch: Shader 25 bind to kernel 2 '_Z17fdtd_step2_kernelPfS_S_i'
GPGPU-Sim uArch: Shader 26 bind to kernel 2 '_Z17fdtd_step2_kernelPfS_S_i'
GPGPU-Sim uArch: Shader 27 bind to kernel 2 '_Z17fdtd_step2_kernelPfS_S_i'
GPGPU-Sim uArch: Shader 0 bind to kernel 2 '_Z17fdtd_step2_kernelPfS_S_i'
GPGPU-Sim uArch: Shader 1 bind to kernel 2 '_Z17fdtd_step2_kernelPfS_S_i'
GPGPU-Sim uArch: Shader 2 bind to kernel 2 '_Z17fdtd_step2_kernelPfS_S_i'
GPGPU-Sim uArch: Shader 3 bind to kernel 2 '_Z17fdtd_step2_kernelPfS_S_i'
GPGPU-Sim uArch: Shader 4 bind to kernel 2 '_Z17fdtd_step2_kernelPfS_S_i'
GPGPU-Sim uArch: Shader 5 bind to kernel 2 '_Z17fdtd_step2_kernelPfS_S_i'
GPGPU-Sim uArch: Shader 6 bind to kernel 2 '_Z17fdtd_step2_kernelPfS_S_i'
GPGPU-Sim uArch: Shader 7 bind to kernel 2 '_Z17fdtd_step2_kernelPfS_S_i'
GPGPU-Sim uArch: Shader 8 bind to kernel 2 '_Z17fdtd_step2_kernelPfS_S_i'
GPGPU-Sim uArch: Shader 9 bind to kernel 2 '_Z17fdtd_step2_kernelPfS_S_i'
GPGPU-Sim uArch: Shader 10 bind to kernel 2 '_Z17fdtd_step2_kernelPfS_S_i'
GPGPU-Sim uArch: Shader 11 bind to kernel 2 '_Z17fdtd_step2_kernelPfS_S_i'
GPGPU-Sim uArch: Shader 12 bind to kernel 2 '_Z17fdtd_step2_kernelPfS_S_i'
GPGPU-Sim uArch: Shader 13 bind to kernel 2 '_Z17fdtd_step2_kernelPfS_S_i'
GPGPU-Sim uArch: Shader 14 bind to kernel 2 '_Z17fdtd_step2_kernelPfS_S_i'
GPGPU-Sim uArch: Shader 15 bind to kernel 2 '_Z17fdtd_step2_kernelPfS_S_i'
GPGPU-Sim uArch: Shader 16 bind to kernel 2 '_Z17fdtd_step2_kernelPfS_S_i'
GPGPU-Sim uArch: Shader 15 bind to kernel 2 '_Z17fdtd_step2_kernelPfS_S_i'
GPGPU-Sim uArch: Shader 24 bind to kernel 2 '_Z17fdtd_step2_kernelPfS_S_i'
GPGPU-Sim uArch: Shader 8 bind to kernel 2 '_Z17fdtd_step2_kernelPfS_S_i'
GPGPU-Sim uArch: Shader 11 bind to kernel 2 '_Z17fdtd_step2_kernelPfS_S_i'
GPGPU-Sim uArch: Shader 15 bind to kernel 2 '_Z17fdtd_step2_kernelPfS_S_i'
GPGPU-Sim uArch: Shader 16 bind to kernel 2 '_Z17fdtd_step2_kernelPfS_S_i'
GPGPU-Sim uArch: Shader 17 bind to kernel 2 '_Z17fdtd_step2_kernelPfS_S_i'
GPGPU-Sim uArch: Shader 18 bind to kernel 2 '_Z17fdtd_step2_kernelPfS_S_i'
GPGPU-Sim uArch: Shader 19 bind to kernel 2 '_Z17fdtd_step2_kernelPfS_S_i'
GPGPU-Sim uArch: Shader 20 bind to kernel 2 '_Z17fdtd_step2_kernelPfS_S_i'
[...]
Tlb_tot_thrash: 34814
========================================Page fault statistics==============================
Shader0: Page_table_access:14981 Page_hit: 13035 Page_miss: 1946 Page_hit_rate: 0.870102
Shader1: Page_table_access:15434 Page_hit: 13517 Page_miss: 1917 Page_hit_rate: 0.875794
Shader2: Page_table_access:14076 Page_hit: 12183 Page_miss: 1893 Page_hit_rate: 0.865516
Shader3: Page_table_access:14555 Page_hit: 12761 Page_miss: 1794 Page_hit_rate: 0.876743
Shader4: Page_table_access:15787 Page_hit: 13945 Page_miss: 1842 Page_hit_rate: 0.883322
Shader5: Page_table_access:13743 Page_hit: 11902 Page_miss: 1841 Page_hit_rate: 0.866041
Shader6: Page_table_access:15062 Page_hit: 13175 Page_miss: 1887 Page_hit_rate: 0.874718
Shader7: Page_table_access:15100 Page_hit: 13187 Page_miss: 1913 Page_hit_rate: 0.873311
Shader8: Page_table_access:15305 Page_hit: 13489 Page_miss: 1816 Page_hit_rate: 0.881346
Shader9: Page_table_access:15219 Page_hit: 13420 Page_miss: 1799 Page_hit_rate: 0.881792
Shader10: Page_table_access:14372 Page_hit: 12557 Page_miss: 1815 Page_hit_rate: 0.873713
Shader11: Page_table_access:16172 Page_hit: 14444 Page_miss: 1728 Page_hit_rate: 0.893149
Shader12: Page_table_access:15026 Page_hit: 13093 Page_miss: 1933 Page_hit_rate: 0.871356
Shader13: Page_table_access:14688 Page_hit: 12934 Page_miss: 1754 Page_hit_rate: 0.880583
Shader14: Page_table_access:14184 Page_hit: 12161 Page_miss: 2023 Page_hit_rate: 0.857374
Shader15: Page_table_access:15374 Page_hit: 13412 Page_miss: 1962 Page_hit_rate: 0.872382
Shader16: Page_table_access:14067 Page_hit: 12008 Page_miss: 2059 Page_hit_rate: 0.853629
Shader17: Page_table_access:14614 Page_hit: 12554 Page_miss: 2060 Page_hit_rate: 0.859039
Shader18: Page_table_access:15197 Page_hit: 13184 Page_miss: 2013 Page_hit_rate: 0.867540
Shader19: Page_table_access:15493 Page_hit: 13449 Page_miss: 2044 Page_hit_rate: 0.868069
Shader20: Page_table_access:16472 Page_hit: 14469 Page_miss: 2003 Page_hit_rate: 0.878400
Shader21: Page_table_access:14489 Page_hit: 12565 Page_miss: 1924 Page_hit_rate: 0.867210
Shader22: Page_table_access:14594 Page_hit: 12640 Page_miss: 1954 Page_hit_rate: 0.866109
Shader23: Page_table_access:13878 Page_hit: 11956 Page_miss: 1922 Page_hit_rate: 0.861507
Shader24: Page_table_access:16471 Page_hit: 14636 Page_miss: 1835 Page_hit_rate: 0.888592
Shader25: Page_table_access:14817 Page_hit: 12960 Page_miss: 1857 Page_hit_rate: 0.874671
Shader26: Page_table_access:14439 Page_hit: 12575 Page_miss: 1864 Page_hit_rate: 0.870905
Shader27: Page_table_access:14395 Page_hit: 12421 Page_miss: 1974 Page_hit_rate: 0.862869
Page_table_tot_access: 418004 Page_tot_hit: 364632, Page_tot_miss 53372, Page_tot_hit_rate: 0.872317 Page_tot_fault: 58 Page_tot_pending: 53314
Total_memory_access_page_fault: 58, Average_latency: 1337357.625000
========================================Page thrashing statistics==============================
Page_validate: 4624 Page_evict_dirty: 0 Page_evict_not_dirty: 0
Page_tot_thrash: 0
========================================Memory access statistics==============================
========================================Prefetch statistics==============================
Tot_page_hit: 0, Tot_page_miss: 0, Tot_page_fault: 0
Avg_page_latency: 0.000000, Avg_prefetch_size: -nan, Avg_prefetch_latency: 0.000000
========================================Rdma statistics==============================
dma_read: 0
dma_migration_read 0
dma_migration_write 0
========================================PCI-e statistics==============================
Pcie_read_utilization: 0.696501
[0-25]: 0.044260, [26-50]: 0.021832, [51-75]: 0.933909, [76-100]: 0.000000
Pcie_write_utilization: 0.000000
[0-25]: -nan, [26-50]: -nan, [51-75]: -nan, [76-100]: -nan
F:   222150----T:  1846289 	 	 	 Kl: 1 	 Sm: 0 	 T: kernel_launch(1096.650269)
F:   223436----T:   228077 	 St: c0c10000 Sz: 28672 	 Sm: 0 	 T: memcpy_h2d(3.133693)
F:   228077----T:   233592 	 St: c0c17000 Sz: 36864 	 Sm: 0 	 T: memcpy_h2d(3.723835)
F:   233592----T:   236392 	 St: c0c20000 Sz: 8192 	 Sm: 0 	 T: memcpy_h2d(1.890614)
F:   236392----T:   244172 	 St: c0c22000 Sz: 57344 	 Sm: 0 	 T: memcpy_h2d(5.253207)
F:   244172----T:   246777 	 St: c0000000 Sz: 4096 	 Sm: 0 	 T: memcpy_h2d(1.758947)
F:   246777----T:   255017 	 St: c0001000 Sz: 61440 	 Sm: 0 	 T: memcpy_h2d(5.563808)
F:   255017----T:   257817 	 St: c0c30000 Sz: 8192 	 Sm: 0 	 T: memcpy_h2d(1.890614)
F:   257817----T:   273043 	 St: c0c32000 Sz: 122880 	 Sm: 0 	 T: memcpy_h2d(10.280891)
F:   273043----T:   275843 	 St: c0610000 Sz: 8192 	 Sm: 0 	 T: memcpy_h2d(1.890614)
F:   275843----T:   278643 	 St: c0612000 Sz: 8192 	 Sm: 0 	 T: memcpy_h2d(1.890614)
F:   278643----T:   285508 	 St: c0614000 Sz: 49152 	 Sm: 0 	 T: memcpy_h2d(4.635382)
F:   285508----T:   288113 	 St: c0620000 Sz: 4096 	 Sm: 0 	 T: memcpy_h2d(1.758947)
F:   288113----T:   290718 	 St: c0621000 Sz: 4096 	 Sm: 0 	 T: memcpy_h2d(1.758947)
F:   290718----T:   298498 	 St: c0622000 Sz: 57344 	 Sm: 0 	 T: memcpy_h2d(5.253207)
F:   298498----T:   301103 	 St: c0630000 Sz: 4096 	 Sm: 0 	 T: memcpy_h2d(1.758947)
F:   301103----T:   316798 	 St: c0631000 Sz: 126976 	 Sm: 0 	 T: memcpy_h2d(10.597569)
F:   317302----T:   319907 	 St: c0c50000 Sz: 4096 	 Sm: 0 	 T: memcpy_h2d(1.758947)
F:   319907----T:   350630 	 St: c0c51000 Sz: 258048 	 Sm: 0 	 T: memcpy_h2d(20.744766)
F:   350630----T:   353235 	 St: c0650000 Sz: 4096 	 Sm: 0 	 T: memcpy_h2d(1.758947)
F:   353235----T:   383958 	 St: c0651000 Sz: 258048 	 Sm: 0 	 T: memcpy_h2d(20.744766)
F:   385031----T:   387636 	 St: c0c90000 Sz: 4096 	 Sm: 0 	 T: memcpy_h2d(1.758947)
F:   387636----T:   448472 	 St: c0c91000 Sz: 520192 	 Sm: 0 	 T: memcpy_h2d(41.077652)
F:   448472----T:   451077 	 St: c0690000 Sz: 4096 	 Sm: 0 	 T: memcpy_h2d(1.758947)
F:   451077----T:   511913 	 St: c0691000 Sz: 520192 	 Sm: 0 	 T: memcpy_h2d(41.077652)
F:   515966----T:   518571 	 St: c0d10000 Sz: 4096 	 Sm: 0 	 T: memcpy_h2d(1.758947)
F:   518571----T:   639660 	 St: c0d11000 Sz: 1044480 	 Sm: 0 	 T: memcpy_h2d(81.761650)
F:   639660----T:   642265 	 St: c0710000 Sz: 4096 	 Sm: 0 	 T: memcpy_h2d(1.758947)
F:   642265----T:   763354 	 St: c0711000 Sz: 1044480 	 Sm: 0 	 T: memcpy_h2d(81.761650)
F:   772665----T:   775270 	 St: c0e10000 Sz: 4096 	 Sm: 0 	 T: memcpy_h2d(1.758947)
F:   775270----T:   783510 	 St: c0e11000 Sz: 61440 	 Sm: 0 	 T: memcpy_h2d(5.563808)
F:   783510----T:   786115 	 St: c0810000 Sz: 4096 	 Sm: 0 	 T: memcpy_h2d(1.758947)
F:   786115----T:   794355 	 St: c0811000 Sz: 61440 	 Sm: 0 	 T: memcpy_h2d(5.563808)
F:   795060----T:   797665 	 St: c0e20000 Sz: 4096 	 Sm: 0 	 T: memcpy_h2d(1.758947)
F:   797665----T:   805905 	 St: c0e21000 Sz: 61440 	 Sm: 0 	 T: memcpy_h2d(5.563808)
F:   805905----T:   808991 	 St: c0e30000 Sz: 12288 	 Sm: 0 	 T: memcpy_h2d(2.083727)
F:   808991----T:   823749 	 St: c0e33000 Sz: 118784 	 Sm: 0 	 T: memcpy_h2d(9.964889)
F:   823749----T:   826354 	 St: c0820000 Sz: 4096 	 Sm: 0 	 T: memcpy_h2d(1.758947)
F:   826354----T:   834594 	 St: c0821000 Sz: 61440 	 Sm: 0 	 T: memcpy_h2d(5.563808)
F:   834594----T:   837199 	 St: c0830000 Sz: 4096 	 Sm: 0 	 T: memcpy_h2d(1.758947)
F:   837199----T:   852894 	 St: c0831000 Sz: 126976 	 Sm: 0 	 T: memcpy_h2d(10.597569)
F:   853401----T:   856006 	 St: c0e50000 Sz: 4096 	 Sm: 0 	 T: memcpy_h2d(1.758947)
F:   856006----T:   886729 	 St: c0e51000 Sz: 258048 	 Sm: 0 	 T: memcpy_h2d(20.744766)
F:   886729----T:   889334 	 St: c0850000 Sz: 4096 	 Sm: 0 	 T: memcpy_h2d(1.758947)
F:   889334----T:   920057 	 St: c0851000 Sz: 258048 	 Sm: 0 	 T: memcpy_h2d(20.744766)
F:   920998----T:   923603 	 St: c0e90000 Sz: 4096 	 Sm: 0 	 T: memcpy_h2d(1.758947)
F:   923603----T:   984439 	 St: c0e91000 Sz: 520192 	 Sm: 0 	 T: memcpy_h2d(41.077652)
F:   984439----T:   987044 	 St: c0890000 Sz: 4096 	 Sm: 0 	 T: memcpy_h2d(1.758947)
F:   987044----T:  1047880 	 St: c0891000 Sz: 520192 	 Sm: 0 	 T: memcpy_h2d(41.077652)
F:  1052574----T:  1055179 	 St: c0f10000 Sz: 4096 	 Sm: 0 	 T: memcpy_h2d(1.758947)
F:  1055179----T:  1176268 	 St: c0f11000 Sz: 1044480 	 Sm: 0 	 T: memcpy_h2d(81.761650)
F:  1176268----T:  1178873 	 St: c0910000 Sz: 4096 	 Sm: 0 	 T: memcpy_h2d(1.758947)
F:  1178873----T:  1299962 	 St: c0911000 Sz: 1044480 	 Sm: 0 	 T: memcpy_h2d(81.761650)
F:  1310255----T:  1312860 	 St: c1010000 Sz: 4096 	 Sm: 0 	 T: memcpy_h2d(1.758947)
F:  1312860----T:  1321100 	 St: c1011000 Sz: 61440 	 Sm: 0 	 T: memcpy_h2d(5.563808)
F:  1321100----T:  1323705 	 St: c0a10000 Sz: 4096 	 Sm: 0 	 T: memcpy_h2d(1.758947)
F:  1323705----T:  1331945 	 St: c0a11000 Sz: 61440 	 Sm: 0 	 T: memcpy_h2d(5.563808)
F:  1332674----T:  1335279 	 St: c1020000 Sz: 4096 	 Sm: 0 	 T: memcpy_h2d(1.758947)
F:  1335279----T:  1343519 	 St: c1021000 Sz: 61440 	 Sm: 0 	 T: memcpy_h2d(5.563808)
F:  1343519----T:  1346319 	 St: c1030000 Sz: 8192 	 Sm: 0 	 T: memcpy_h2d(1.890614)
F:  1346319----T:  1361545 	 St: c1032000 Sz: 122880 	 Sm: 0 	 T: memcpy_h2d(10.280891)
F:  1361545----T:  1364150 	 St: c0a20000 Sz: 4096 	 Sm: 0 	 T: memcpy_h2d(1.758947)
F:  1364150----T:  1372390 	 St: c0a21000 Sz: 61440 	 Sm: 0 	 T: memcpy_h2d(5.563808)
F:  1372390----T:  1374995 	 St: c0a30000 Sz: 4096 	 Sm: 0 	 T: memcpy_h2d(1.758947)
F:  1374995----T:  1390690 	 St: c0a31000 Sz: 126976 	 Sm: 0 	 T: memcpy_h2d(10.597569)
F:  1391077----T:  1393682 	 St: c1050000 Sz: 4096 	 Sm: 0 	 T: memcpy_h2d(1.758947)
F:  1393682----T:  1396287 	 St: c1051000 Sz: 4096 	 Sm: 0 	 T: memcpy_h2d(1.758947)
F:  1396287----T:  1426540 	 St: c1052000 Sz: 253952 	 Sm: 0 	 T: memcpy_h2d(20.427414)
F:  1426540----T:  1429145 	 St: c0a50000 Sz: 4096 	 Sm: 0 	 T: memcpy_h2d(1.758947)
F:  1429145----T:  1459868 	 St: c0a51000 Sz: 258048 	 Sm: 0 	 T: memcpy_h2d(20.744766)
F:  1460986----T:  1463591 	 St: c1090000 Sz: 4096 	 Sm: 0 	 T: memcpy_h2d(1.758947)
F:  1463591----T:  1524427 	 St: c1091000 Sz: 520192 	 Sm: 0 	 T: memcpy_h2d(41.077652)
F:  1524427----T:  1527032 	 St: c0a90000 Sz: 4096 	 Sm: 0 	 T: memcpy_h2d(1.758947)
F:  1527032----T:  1587868 	 St: c0a91000 Sz: 520192 	 Sm: 0 	 T: memcpy_h2d(41.077652)
F:  1592572----T:  1595177 	 St: c1110000 Sz: 4096 	 Sm: 0 	 T: memcpy_h2d(1.758947)
F:  1595177----T:  1716266 	 St: c1111000 Sz: 1044480 	 Sm: 0 	 T: memcpy_h2d(81.761650)
F:  1716266----T:  1718871 	 St: c0b10000 Sz: 4096 	 Sm: 0 	 T: memcpy_h2d(1.758947)
F:  1718871----T:  1839960 	 St: c0b11000 Sz: 1044480 	 Sm: 0 	 T: memcpy_h2d(81.761650)
F:  2068439----T:  2901290 	 	 	 Kl: 2 	 Sm: 0 	 T: kernel_launch(562.357178)
F:  2070110----T:  2072910 	 St: c0010000 Sz: 8192 	 Sm: 0 	 T: memcpy_h2d(1.890614)
F:  2072910----T:  2080690 	 St: c0012000 Sz: 57344 	 Sm: 0 	 T: memcpy_h2d(5.253207)
F:  2080690----T:  2083776 	 St: c0020000 Sz: 12288 	 Sm: 0 	 T: memcpy_h2d(2.083727)
F:  2083776----T:  2091098 	 St: c0023000 Sz: 53248 	 Sm: 0 	 T: memcpy_h2d(4.943957)
F:  2091098----T:  2093703 	 St: c0030000 Sz: 4096 	 Sm: 0 	 T: memcpy_h2d(1.758947)
F:  2093703----T:  2109398 	 St: c0031000 Sz: 126976 	 Sm: 0 	 T: memcpy_h2d(10.597569)
F:  2110267----T:  2113067 	 St: c0050000 Sz: 8192 	 Sm: 0 	 T: memcpy_h2d(1.890614)
F:  2113067----T:  2143320 	 St: c0052000 Sz: 253952 	 Sm: 0 	 T: memcpy_h2d(20.427414)
F:  2144913----T:  2148343 	 St: c0090000 Sz: 16384 	 Sm: 0 	 T: memcpy_h2d(2.316003)
F:  2148343----T:  2207767 	 St: c0094000 Sz: 507904 	 Sm: 0 	 T: memcpy_h2d(40.124241)
F:  2212397----T:  2215483 	 St: c0110000 Sz: 12288 	 Sm: 0 	 T: memcpy_h2d(2.083727)
F:  2215483----T:  2335631 	 St: c0113000 Sz: 1036288 	 Sm: 0 	 T: memcpy_h2d(81.126266)
F:  2346804----T:  2349604 	 St: c0210000 Sz: 8192 	 Sm: 0 	 T: memcpy_h2d(1.890614)
F:  2349604----T:  2357384 	 St: c0212000 Sz: 57344 	 Sm: 0 	 T: memcpy_h2d(5.253207)
F:  2357384----T:  2361196 	 St: c0220000 Sz: 20480 	 Sm: 0 	 T: memcpy_h2d(2.573936)
F:  2361196----T:  2367608 	 St: c0225000 Sz: 45056 	 Sm: 0 	 T: memcpy_h2d(4.329507)
F:  2368734----T:  2371339 	 St: c0230000 Sz: 4096 	 Sm: 0 	 T: memcpy_h2d(1.758947)
F:  2371339----T:  2387034 	 St: c0231000 Sz: 126976 	 Sm: 0 	 T: memcpy_h2d(10.597569)
F:  2387034----T:  2390846 	 St: c0250000 Sz: 20480 	 Sm: 0 	 T: memcpy_h2d(2.573936)
F:  2390846----T:  2419688 	 St: c0255000 Sz: 241664 	 Sm: 0 	 T: memcpy_h2d(19.474680)
F:  2423208----T:  2425813 	 St: c0290000 Sz: 4096 	 Sm: 0 	 T: memcpy_h2d(1.758947)
F:  2425813----T:  2486649 	 St: c0291000 Sz: 520192 	 Sm: 0 	 T: memcpy_h2d(41.077652)
F:  2491480----T:  2494085 	 St: c0310000 Sz: 4096 	 Sm: 0 	 T: memcpy_h2d(1.758947)
F:  2494085----T:  2615174 	 St: c0311000 Sz: 1044480 	 Sm: 0 	 T: memcpy_h2d(81.761650)
F:  2626214----T:  2629014 	 St: c0410000 Sz: 8192 	 Sm: 0 	 T: memcpy_h2d(1.890614)
F:  2629014----T:  2636794 	 St: c0412000 Sz: 57344 	 Sm: 0 	 T: memcpy_h2d(5.253207)
F:  2636794----T:  2639594 	 St: c0420000 Sz: 8192 	 Sm: 0 	 T: memcpy_h2d(1.890614)
F:  2639594----T:  2647374 	 St: c0422000 Sz: 57344 	 Sm: 0 	 T: memcpy_h2d(5.253207)
F:  2648495----T:  2651100 	 St: c0430000 Sz: 4096 	 Sm: 0 	 T: memcpy_h2d(1.758947)
F:  2651100----T:  2666795 	 St: c0431000 Sz: 126976 	 Sm: 0 	 T: memcpy_h2d(10.597569)
F:  2666795----T:  2669881 	 St: c0450000 Sz: 12288 	 Sm: 0 	 T: memcpy_h2d(2.083727)
F:  2669881----T:  2699664 	 St: c0453000 Sz: 249856 	 Sm: 0 	 T: memcpy_h2d(20.110062)
F:  2701588----T:  2704193 	 St: c0490000 Sz: 4096 	 Sm: 0 	 T: memcpy_h2d(1.758947)
F:  2704193----T:  2765029 	 St: c0491000 Sz: 520192 	 Sm: 0 	 T: memcpy_h2d(41.077652)
F:  2771302----T:  2773907 	 St: c0510000 Sz: 4096 	 Sm: 0 	 T: memcpy_h2d(1.758947)
F:  2773907----T:  2894996 	 St: c0511000 Sz: 1044480 	 Sm: 0 	 T: memcpy_h2d(81.761650)
F:  3123440----T:  3211254 	 	 	 Kl: 3 	 Sm: 0 	 T: kernel_launch(59.293720)
F:  3433404----T:  3488496 	 	 	 Kl: 4 	 Sm: 0 	 T: kernel_launch(37.199188)
F:  3710646----T:  3774829 	 	 	 Kl: 5 	 Sm: 0 	 T: kernel_launch(43.337608)
F:  3996979----T:  4083145 	 	 	 Kl: 6 	 Sm: 0 	 T: kernel_launch(58.180958)
F:  4305295----T:  4360279 	 	 	 Kl: 7 	 Sm: 0 	 T: kernel_launch(37.126266)
F:  4582429----T:  4646902 	 	 	 Kl: 8 	 Sm: 0 	 T: kernel_launch(43.533424)
F:  4869052----T:  4955349 	 	 	 Kl: 9 	 Sm: 0 	 T: kernel_launch(58.269413)
F:  5177499----T:  5232405 	 	 	 Kl: 10 	 Sm: 0 	 T: kernel_launch(37.073601)
F:  5454555----T:  5518957 	 	 	 Kl: 11 	 Sm: 0 	 T: kernel_launch(43.485481)
F:  5741107----T:  5827617 	 	 	 Kl: 12 	 Sm: 0 	 T: kernel_launch(58.413235)
F:  6049767----T:  6104504 	 	 	 Kl: 13 	 Sm: 0 	 T: kernel_launch(36.959488)
F:  6326654----T:  6390861 	 	 	 Kl: 14 	 Sm: 0 	 T: kernel_launch(43.353813)
F:  6613011----T:  6699498 	 	 	 Kl: 15 	 Sm: 0 	 T: kernel_launch(58.397705)
Tot_prefetch_time: 0(cycle), 0.000000(us)
Tot_kernel_exec_time: 3367248(cycle), 2273.631348(us)
Tot_kernel_exec_time_and_fault_time: 7232658(cycle), 4883.631348(us)
Tot_memcpy_h2d_time: 2354291(cycle), 1589.663086(us)
Tot_memcpy_d2h_time: 0(cycle), 0.000000(us)
Tot_memcpy_time: 2354291(cycle), 1589.663086(us)
Tot_devicesync_time: 0(cycle), 0.000000(us)
Tot_writeback_time: 0(cycle), 0.000000(us)
Tot_dma_time: 0(cycle), 0.000000(us)
Tot_memcpy_d2h_sync_wb_time: 0(cycle), 0.000000(us)
GPGPU-Sim: *** exit detected ***
