

        *** GPGPU-Sim Simulator Version 3.2.2  [build gpgpu-sim_git-commit-ccc09f1cf63a6cc8b61cc8f41f59ef817e0fb5a2_modified_0] ***


GPGPU-Sim PTX: simulation mode 0 (can change with PTX_SIM_MODE_FUNC environment variable:
               1=functional simulation only, 0=detailed performance simulator)
GPGPU-Sim: Configuration options:

-network_mode                           1 # Interconnection network mode
-inter_config_file   config_fermi_islip.icnt # Interconnection network config file
-gpgpu_ptx_use_cuobjdump                    1 # Use cuobjdump to extract ptx and sass from binaries
-gpgpu_experimental_lib_support                    0 # Try to extract code from cuda libraries [Broken because of unknown cudaGetExportTable]
-gpgpu_ptx_convert_to_ptxplus                    0 # Convert SASS (native ISA) to ptxplus and run ptxplus
-gpgpu_ptx_force_max_capability                   20 # Force maximum compute capability
-gpgpu_ptx_inst_debug_to_file                    0 # Dump executed instructions' debug information to file
-gpgpu_ptx_inst_debug_file       inst_debug.txt # Executed instructions' debug output file
-gpgpu_ptx_inst_debug_thread_uid                    1 # Thread UID for executed instructions' debug output
-gpgpu_simd_model                       1 # 1 = post-dominator
-gpgpu_shader_core_pipeline              2048:32 # shader core pipeline config, i.e., {<nthread>:<warpsize>}
-gpgpu_tex_cache:l1  16:128:24,L:R:m:N:L,F:128:4,128:2 # per-shader L1 texture cache  (READ-ONLY) config  {<nsets>:<bsize>:<assoc>,<rep>:<wr>:<alloc>:<wr_alloc>,<mshr>:<N>:<merge>,<mq>:<rf>}
-gpgpu_const_cache:l1 128:64:2,L:R:f:N:L,A:2:64,4 # per-shader L1 constant memory cache  (READ-ONLY) config  {<nsets>:<bsize>:<assoc>,<rep>:<wr>:<alloc>:<wr_alloc>,<mshr>:<N>:<merge>,<mq>} 
-gpgpu_cache:il1     8:128:4,L:R:f:N:L,A:2:48,4 # shader L1 instruction cache config  {<nsets>:<bsize>:<assoc>,<rep>:<wr>:<alloc>:<wr_alloc>,<mshr>:<N>:<merge>,<mq>} 
-gpgpu_cache:dl1     64:128:6,L:L:m:N:H,A:128:8,8 # per-shader L1 data cache config  {<nsets>:<bsize>:<assoc>,<rep>:<wr>:<alloc>:<wr_alloc>,<mshr>:<N>:<merge>,<mq> | none}
-gpgpu_cache:dl1PrefL1                 none # per-shader L1 data cache config  {<nsets>:<bsize>:<assoc>,<rep>:<wr>:<alloc>:<wr_alloc>,<mshr>:<N>:<merge>,<mq> | none}
-gpgpu_cache:dl1PrefShared                 none # per-shader L1 data cache config  {<nsets>:<bsize>:<assoc>,<rep>:<wr>:<alloc>:<wr_alloc>,<mshr>:<N>:<merge>,<mq> | none}
-gmem_skip_L1D                          1 # global memory access skip L1D cache (implements -Xptxas -dlcm=cg, default=no skip)
-gpgpu_perfect_mem                      0 # enable perfect memory mode (no cache miss)
-n_regfile_gating_group                    4 # group of lanes that should be read/written together)
-gpgpu_clock_gated_reg_file                    0 # enable clock gated reg file for power calculations
-gpgpu_clock_gated_lanes                    0 # enable clock gated lanes for power calculations
-gpgpu_shader_registers                65536 # Number of registers per shader core. Limits number of concurrent CTAs. (default 8192)
-gpgpu_shader_cta                      32 # Maximum number of concurrent CTAs in shader (default 8)
-gpgpu_num_cta_barriers                   16 # Maximum number of named barriers per CTA (default 16)
-gpgpu_n_clusters                      28 # number of processing clusters
-gpgpu_n_cores_per_cluster                    1 # number of simd cores per cluster
-gpgpu_n_cluster_ejection_buffer_size                    8 # number of packets in ejection buffer
-gpgpu_n_ldst_response_buffer_size                    2 # number of response packets in ld/st unit ejection buffer
-gpgpu_shmem_size                   16384 # Size of shared memory per shader core (default 16kB)
-gpgpu_shmem_size                   98304 # Size of shared memory per shader core (default 16kB)
-gpgpu_shmem_size_PrefL1                16384 # Size of shared memory per shader core (default 16kB)
-gpgpu_shmem_size_PrefShared                16384 # Size of shared memory per shader core (default 16kB)
-gpgpu_shmem_num_banks                   32 # Number of banks in the shared memory in each shader core (default 16)
-gpgpu_shmem_limited_broadcast                    0 # Limit shared memory to do one broadcast per cycle (default on)
-gpgpu_shmem_warp_parts                    1 # Number of portions a warp is divided into for shared memory bank conflict check 
-gpgpu_warpdistro_shader                   -1 # Specify which shader core to collect the warp size distribution from
-gpgpu_warp_issue_shader                    0 # Specify which shader core to collect the warp issue distribution from
-gpgpu_local_mem_map                    1 # Mapping from local memory space address to simulated GPU physical address space (default = enabled)
-gpgpu_num_reg_banks                   32 # Number of register banks (default = 8)
-gpgpu_reg_bank_use_warp_id                    0 # Use warp ID in mapping registers to banks (default = off)
-gpgpu_operand_collector_num_units_sp                   20 # number of collector units (default = 4)
-gpgpu_operand_collector_num_units_sfu                    4 # number of collector units (default = 4)
-gpgpu_operand_collector_num_units_mem                    8 # number of collector units (default = 2)
-gpgpu_operand_collector_num_units_gen                    0 # number of collector units (default = 0)
-gpgpu_operand_collector_num_in_ports_sp                    4 # number of collector unit in ports (default = 1)
-gpgpu_operand_collector_num_in_ports_sfu                    1 # number of collector unit in ports (default = 1)
-gpgpu_operand_collector_num_in_ports_mem                    1 # number of collector unit in ports (default = 1)
-gpgpu_operand_collector_num_in_ports_gen                    0 # number of collector unit in ports (default = 0)
-gpgpu_operand_collector_num_out_ports_sp                    4 # number of collector unit in ports (default = 1)
-gpgpu_operand_collector_num_out_ports_sfu                    1 # number of collector unit in ports (default = 1)
-gpgpu_operand_collector_num_out_ports_mem                    1 # number of collector unit in ports (default = 1)
-gpgpu_operand_collector_num_out_ports_gen                    0 # number of collector unit in ports (default = 0)
-gpgpu_coalesce_arch                   13 # Coalescing arch (default = 13, anything else is off for now)
-gpgpu_num_sched_per_core                    2 # Number of warp schedulers per core
-gpgpu_max_insn_issue_per_warp                    2 # Max number of instructions that can be issued per warp in one cycle by scheduler
-gpgpu_simt_core_sim_order                    1 # Select the simulation order of cores in a cluster (0=Fix, 1=Round-Robin)
-gpgpu_pipeline_widths        4,1,1,4,1,1,6 # Pipeline widths ID_OC_SP,ID_OC_SFU,ID_OC_MEM,OC_EX_SP,OC_EX_SFU,OC_EX_MEM,EX_WB
-gpgpu_num_sp_units                     4 # Number of SP units (default=1)
-gpgpu_num_sfu_units                    1 # Number of SF units (default=1)
-gpgpu_num_mem_units                    1 # Number if ldst units (default=1) WARNING: not hooked up to anything
-gpgpu_scheduler                      gto # Scheduler configuration: < lrr | gto | two_level_active > If two_level_active:<num_active_warps>:<inner_prioritization>:<outer_prioritization>For complete list of prioritization values see shader.h enum scheduler_prioritization_typeDefault: gto
-gpgpu_concurrent_kernel_sm                    0 # Support concurrent kernels on a SM (default = disabled)
-tlb_size                            4096 # Number of tlb entries per SM.
-gpgpu_dram_scheduler                    1 # 0 = fifo, 1 = FR-FCFS (defaul)
-gpgpu_dram_partition_queues              8:8:8:8 # i2$:$2d:d2$:$2i
-l2_ideal                               0 # Use a ideal L2 cache that always hit
-gpgpu_cache:dl2     64:128:16,L:B:m:W:L,A:1024:1024,4:0,32 # unified banked L2 data cache config  {<nsets>:<bsize>:<assoc>,<rep>:<wr>:<alloc>:<wr_alloc>,<mshr>:<N>:<merge>,<mq>}
-gpgpu_cache:dl2_texture_only                    0 # L2 cache used for texture only
-gpgpu_n_mem                           11 # number of memory modules (e.g. memory controllers) in gpu
-gpgpu_n_sub_partition_per_mchannel                    2 # number of memory subpartition in each memory module
-gpgpu_n_mem_per_ctrlr                    1 # number of memory chips per memory controller
-gpgpu_memlatency_stat                   14 # track and display latency statistics 0x2 enables MC, 0x4 enables queue logs
-gpgpu_frfcfs_dram_sched_queue_size                   64 # 0 = unlimited (default); # entries per chip
-gpgpu_dram_return_queue_size                  116 # 0 = unlimited (default); # entries per chip
-gpgpu_dram_buswidth                    4 # default = 4 bytes (8 bytes per cycle at DDR)
-gpgpu_dram_burst_length                    8 # Burst length of each DRAM request (default = 4 data bus cycle)
-dram_data_command_freq_ratio                    4 # Frequency ratio between DRAM data bus and command bus (default = 2 times, i.e. DDR)
-gpgpu_dram_timing_opt nbk=16:CCD=2:RRD=6:RCD=12:RAS=28:RP=12:RC=40: CL=12:WL=4:CDLR=5:WR=12:nbkgrp=1:CCDL=0:RTPL=0 # DRAM timing parameters = {nbk:tCCD:tRRD:tRCD:tRAS:tRP:tRC:CL:WL:tCDLR:tWR:nbkgrp:tCCDL:tRTPL}
-rop_latency                          120 # ROP queue latency (default 85)
-dram_latency                         100 # DRAM latency (default 30)
-gpgpu_mem_addr_mapping dramid@8;00000000.00000000.00000000.00000000.0000RRRR.RRRRRRRR.RBBBCCCC.BCCSSSSS # mapping memory address to dram model {dramid@<start bit>;<memory address map>}
-gpgpu_mem_addr_test                    0 # run sweep test to check address mapping for aliased address
-gpgpu_mem_address_mask                    1 # 0 = old addressing mask, 1 = new addressing mask, 2 = new add. mask + flipped bank sel and chip sel bits
-gpuwattch_xml_file  gpuwattch_geforcegtx1080ti.xml # GPUWattch XML file
-power_simulation_enabled                    1 # Turn on power simulator (1=On, 0=Off)
-power_per_cycle_dump                    0 # Dump detailed power output each cycle
-power_trace_enabled                    0 # produce a file for the power trace (1=On, 0=Off)
-power_trace_zlevel                     6 # Compression level of the power trace output log (0=no comp, 9=highest)
-steady_power_levels_enabled                    0 # produce a file for the steady power levels (1=On, 0=Off)
-steady_state_definition                  8:4 # allowed deviation:number of samples
-gpgpu_max_cycle                        0 # terminates gpu simulation early (0 = no limit)
-gpgpu_max_insn                         0 # terminates gpu simulation early (0 = no limit)
-gpgpu_max_cta                          0 # terminates gpu simulation early (0 = no limit)
-gpgpu_runtime_stat                   500 # display runtime statistics such as dram utilization {<freq>:<flag>}
-liveness_message_freq                    1 # Minimum number of seconds between simulation liveness messages (0 = always print)
-gpgpu_flush_l1_cache                    0 # Flush L1 cache at the end of each kernel call
-gpgpu_flush_l2_cache                    0 # Flush L2 cache at the end of each kernel call
-gpgpu_deadlock_detect                    0 # Stop the simulation at deadlock (1=on (default), 0=off)
-gpgpu_ptx_instruction_classification                    0 # if enabled will classify ptx instruction types per kernel (Max 255 kernels now)
-gpgpu_ptx_sim_mode                     0 # Select between Performance (default) or Functional simulation (1)
-gpgpu_clock_domains 1481.0:2962.0:1481.0:2750.0 # Clock Domain Frequencies in MhZ {<Core Clock>:<ICNT Clock>:<L2 Clock>:<DRAM Clock>}
-gpgpu_max_concurrent_kernel                    8 # maximum kernels that can run concurrently on GPU
-gpgpu_cflog_interval                    0 # Interval between each snapshot in control flow logger
-visualizer_enabled                     0 # Turn on visualizer output (1=On, 0=Off)
-visualizer_outputfile                 NULL # Specifies the output log file for visualizer
-visualizer_zlevel                      6 # Compression level of the visualizer output log (0=no comp, 9=highest)
-trace_enabled                          0 # Turn on traces
-trace_components                    none # comma seperated list of traces to enable. Complete list found in trace_streams.tup. Default none
-trace_sampling_core                    0 # The core which is printed using CORE_DPRINTF. Default 0
-trace_sampling_memory_partition                   -1 # The memory partition which is printed using MEMPART_DPRINTF. Default -1 (i.e. all)
-gddr_size                       2.2691MB # Size of GDDR in MB/GB.(GLOBAL_HEAP_START, GLOBAL_HEAP_START + gddr_size) would be used for unmanged memory, (GLOBAL_HEAP_START + gddr_size, GLOBAL_HEAP_START + gddr_size*2) would be used for managed memory. 
-page_table_walk_latency                  100 # Average page table walk latency (in core cycle).
-eviction_policy                        1 # Select page eviction policy
-reserve_accessed_page_percent                    0 # Percentage of accessed pages reserved from eviction in hope that they will be accessed in next iteration.
-percentage_of_free_page_buffer                    0 # Percentage of free page buffer to trigger the page eviction.
-page_size                            4KB # GDDR page size, only 4KB/2MB avaliable.
-pcie_bandwidth                  16.0GB/s # PCI-e bandwidth per direction, in GB/s.
-enable_nvlink                          0 # Enable nvlink 2.0, 150.0GB/s
-enable_rdma                            0 # Enable remote direct memory access
-migrate_threshold                     10 # Access counter threshold for migrating the page from cpu to gpu
-sim_prof_enable                        1 # Enable gpgpu-sim profiler
-hardware_prefetch                      1 # Select gpgpu-sim hardware prefetcher
-hwprefetch_oversub                     1 # Select gpgpu-sim hardware prefetcher under over-subscription
-page_fault_latency                 66645 # Average fault latency (in core cycle).
-enable_accurate_simulation                    0 # Enable page fault functional simulation.
-enable_ptx_file_line_stats                    1 # Turn on PTX source line statistic profiling. (1 = On)
-ptx_line_stats_filename gpgpu_inst_stats.txt # Output file for PTX source line statistics.
-gpgpu_kernel_launch_latency               222150 # Kernel launch latency in cycles. Default: 0
-gpgpu_cdp_enabled                      0 # Turn on CDP
-save_embedded_ptx                      0 # saves ptx files embedded in binary as <n>.ptx
-keep                                   0 # keep intermediate files created by GPGPU-Sim when interfacing with external programs
-gpgpu_ptx_save_converted_ptxplus                    0 # Saved converted ptxplus to a file
-ptx_opcode_latency_int         4,13,4,5,145 # Opcode latencies for integers <ADD,MAX,MUL,MAD,DIV>Default 1,1,19,25,145
-ptx_opcode_latency_fp          4,13,4,5,39 # Opcode latencies for single precision floating points <ADD,MAX,MUL,MAD,DIV>Default 1,1,1,1,30
-ptx_opcode_latency_dp         8,19,8,8,330 # Opcode latencies for double precision floating points <ADD,MAX,MUL,MAD,DIV>Default 8,8,8,8,335
-ptx_opcode_initiation_int            1,2,2,2,8 # Opcode initiation intervals for integers <ADD,MAX,MUL,MAD,DIV>Default 1,1,4,4,32
-ptx_opcode_initiation_fp            1,2,1,1,4 # Opcode initiation intervals for single precision floating points <ADD,MAX,MUL,MAD,DIV>Default 1,1,1,1,5
-ptx_opcode_initiation_dp          1,2,1,1,130 # Opcode initiation intervals for double precision floating points <ADD,MAX,MUL,MAD,DIV>Default 8,8,8,8,130
-cdp_latency         7200,8000,100,12000,1600 # CDP API latency <cudaStreamCreateWithFlags, cudaGetParameterBufferV2_init_perWarp, cudaGetParameterBufferV2_perKernel, cudaLaunchDeviceV2_init_perWarp, cudaLaunchDevicV2_perKernel>Default 7200,8000,100,12000,1600
DRAM Timing Options:
nbk                                    16 # number of banks
CCD                                     2 # column to column delay
RRD                                     6 # minimal delay between activation of rows in different banks
RCD                                    12 # row to column delay
RAS                                    28 # time needed to activate row
RP                                     12 # time needed to precharge (deactivate) row
RC                                     40 # row cycle time
CDLR                                    5 # switching from write to read (changes tWTR)
WR                                     12 # last data-in to row precharge
CL                                     12 # CAS latency
WL                                      4 # Write latency
nbkgrp                                  1 # number of bank groups
CCDL                                    0 # column to column delay between accesses to different bank groups
RTPL                                    0 # read to precharge delay between accesses to different bank groups
Total number of memory sub partition = 22
addr_dec_mask[CHIP]  = 0000000000000000 	high:64 low:0
addr_dec_mask[BK]    = 0000000000007080 	high:15 low:7
addr_dec_mask[ROW]   = 000000000fff8000 	high:28 low:15
addr_dec_mask[COL]   = 0000000000000f7f 	high:12 low:0
addr_dec_mask[BURST] = 000000000000001f 	high:5 low:0
sub_partition_id_mask = 0000000000000080
GPGPU-Sim uArch: clock freqs: 1481000000.000000:2962000000.000000:1481000000.000000:2750000000.000000
GPGPU-Sim uArch: clock periods: 0.00000000067521944632:0.00000000033760972316:0.00000000067521944632:0.00000000036363636364
*** Initializing Memory Statistics ***
GPGPU-Sim uArch: interconnect node map (shaderID+MemID to icntID)
GPGPU-Sim uArch: Memory nodes ID start from index: 28
GPGPU-Sim uArch:    0   1   2   3   4   5   6
GPGPU-Sim uArch:    7   8   9  10  11  12  13
GPGPU-Sim uArch:   14  15  16  17  18  19  20
GPGPU-Sim uArch:   21  22  23  24  25  26  27
GPGPU-Sim uArch:   28  29  30  31  32  33  34
GPGPU-Sim uArch:   35  36  37  38  39  40  41
GPGPU-Sim uArch:   42  43  44  45  46  47  48
GPGPU-Sim uArch:   49
GPGPU-Sim uArch: interconnect node reverse map (icntID to shaderID+MemID)
GPGPU-Sim uArch: Memory nodes start from ID: 28
GPGPU-Sim uArch:    0   1   2   3   4   5   6
GPGPU-Sim uArch:    7   8   9  10  11  12  13
GPGPU-Sim uArch:   14  15  16  17  18  19  20
GPGPU-Sim uArch:   21  22  23  24  25  26  27
GPGPU-Sim uArch:   28  29  30  31  32  33  34
GPGPU-Sim uArch:   35  36  37  38  39  40  41
GPGPU-Sim uArch:   42  43  44  45  46  47  48
GPGPU-Sim uArch:   49
7de2dfb743bda2814e54a627607b5f7e  /home/gpuser/Desktop/gpgpu-sim_UVMSmart/benchmarks/Managed/bfs/bfs
GPGPU-Sim uArch: performance model initialization complete.
GPGPU-Sim PTX: __cudaRegisterFatBinary, fat_cubin_handle = 1, filename=default
self exe links to: /home/gpuser/Desktop/gpgpu-sim_UVMSmart/benchmarks/Managed/bfs/bfs
Running md5sum using "md5sum /home/gpuser/Desktop/gpgpu-sim_UVMSmart/benchmarks/Managed/bfs/bfs "
Parsing file _cuobjdump_complete_output_h3hyc8
######### cuobjdump parser ########
## Adding new section ELF
Adding arch: sm_20
Adding identifier: default
## Adding new section ELF
Adding arch: sm_20
Adding identifier: default
## Adding new section PTX
Adding ptx filename: _cuobjdump_1.ptx
Adding arch: sm_20
Adding identifier: default
Done parsing!!!
GPGPU-Sim PTX: __cudaRegisterFunction _Z7Kernel2PbS_S_S_i : hostFun 0x0x401649, fat_cubin_handle = 1
GPGPU-Sim PTX: instruction assembly for function '_Z6KernelP4NodePiPbS2_S2_S1_i'...   done.
GPGPU-Sim PTX: finding reconvergence points for '_Z6KernelP4NodePiPbS2_S2_S1_i'...
GPGPU-Sim PTX: Finding dominators for '_Z6KernelP4NodePiPbS2_S2_S1_i'...
GPGPU-Sim PTX: Finding immediate dominators for '_Z6KernelP4NodePiPbS2_S2_S1_i'...
GPGPU-Sim PTX: Finding postdominators for '_Z6KernelP4NodePiPbS2_S2_S1_i'...
GPGPU-Sim PTX: Finding immediate postdominators for '_Z6KernelP4NodePiPbS2_S2_S1_i'...
GPGPU-Sim PTX: pre-decoding instructions for '_Z6KernelP4NodePiPbS2_S2_S1_i'...
GPGPU-Sim PTX: reconvergence points for _Z6KernelP4NodePiPbS2_S2_S1_i...
GPGPU-Sim PTX:  1 (potential) branch divergence @  PC=0x060 (_1.ptx:42) @%p1 bra BB0_7;
GPGPU-Sim PTX:    immediate post dominator      @  PC=0x1e8 (_1.ptx:101) ret;
GPGPU-Sim PTX:  2 (potential) branch divergence @  PC=0x090 (_1.ptx:49) @%p2 bra BB0_7;
GPGPU-Sim PTX:    immediate post dominator      @  PC=0x1e8 (_1.ptx:101) ret;
GPGPU-Sim PTX:  3 (potential) branch divergence @  PC=0x0d8 (_1.ptx:59) @%p3 bra BB0_7;
GPGPU-Sim PTX:    immediate post dominator      @  PC=0x1e8 (_1.ptx:101) ret;
GPGPU-Sim PTX:  4 (potential) branch divergence @  PC=0x160 (_1.ptx:79) @%p4 bra BB0_6;
GPGPU-Sim PTX:    immediate post dominator      @  PC=0x1b8 (_1.ptx:93) mov.u32 %r24, %r25;
GPGPU-Sim PTX:  5 (potential) branch divergence @  PC=0x1e0 (_1.ptx:98) @%p5 bra BB0_4;
GPGPU-Sim PTX:    immediate post dominator      @  PC=0x1e8 (_1.ptx:101) ret;
GPGPU-Sim PTX: ... end of reconvergence points for _Z6KernelP4NodePiPbS2_S2_S1_i
GPGPU-Sim PTX: ... done pre-decoding instructions for '_Z6KernelP4NodePiPbS2_S2_S1_i'.
GPGPU-Sim PTX: instruction assembly for function '_Z7Kernel2PbS_S_S_i'...   done.
GPGPU-Sim PTX: finding reconvergence points for '_Z7Kernel2PbS_S_S_i'...
GPGPU-Sim PTX: Finding dominators for '_Z7Kernel2PbS_S_S_i'...
GPGPU-Sim PTX: Finding immediate dominators for '_Z7Kernel2PbS_S_S_i'...
GPGPU-Sim PTX: Finding postdominators for '_Z7Kernel2PbS_S_S_i'...
GPGPU-Sim PTX: Finding immediate postdominators for '_Z7Kernel2PbS_S_S_i'...
GPGPU-Sim PTX: pre-decoding instructions for '_Z7Kernel2PbS_S_S_i'...
GPGPU-Sim PTX: reconvergence points for _Z7Kernel2PbS_S_S_i...
GPGPU-Sim PTX:  1 (potential) branch divergence @  PC=0x240 (_1.ptx:129) @%p1 bra BB1_3;
GPGPU-Sim PTX:    immediate post dominator      @  PC=0x2d0 (_1.ptx:151) ret;
GPGPU-Sim PTX:  2 (potential) branch divergence @  PC=0x270 (_1.ptx:136) @%p2 bra BB1_3;
GPGPU-Sim PTX:    immediate post dominator      @  PC=0x2d0 (_1.ptx:151) ret;
GPGPU-Sim PTX: ... end of reconvergence points for _Z7Kernel2PbS_S_S_i
GPGPU-Sim PTX: ... done pre-decoding instructions for '_Z7Kernel2PbS_S_S_i'.
GPGPU-Sim PTX: finished parsing EMBEDDED .ptx file _1.ptx
Adding _cuobjdump_1.ptx with cubin handle 1
GPGPU-Sim PTX: extracting embedded .ptx to temporary file "_ptx_pxj2C0"
Running: cat _ptx_pxj2C0 | sed 's/.version 1.5/.version 1.4/' | sed 's/, texmode_independent//' | sed 's/\(\.extern \.const\[1\] .b8 \w\+\)\[\]/\1\[1\]/' | sed 's/const\[.\]/const\[0\]/g' > _ptx2_Zrux3S
GPGPU-Sim PTX: generating ptxinfo using "$CUDA_INSTALL_PATH/bin/ptxas --gpu-name=sm_20 -v _ptx2_Zrux3S --output-file  /dev/null 2> _ptx_pxj2C0info"
GPGPU-Sim PTX: Kernel '_Z7Kernel2PbS_S_S_i' : regs=12, lmem=0, smem=0, cmem=68
GPGPU-Sim PTX: Kernel '_Z6KernelP4NodePiPbS2_S2_S1_i' : regs=15, lmem=0, smem=0, cmem=84
GPGPU-Sim PTX: removing ptxinfo using "rm -f _ptx_pxj2C0 _ptx2_Zrux3S _ptx_pxj2C0info"
GPGPU-Sim PTX: loading globals with explicit initializers... 
GPGPU-Sim PTX: finished loading globals (0 bytes total).
GPGPU-Sim PTX: loading constants with explicit initializers...  done.
GPGPU-Sim PTX: __cudaRegisterFunction _Z6KernelP4NodePiPbS2_S2_S1_i : hostFun 0x0x401519, fat_cubin_handle = 1
Reading File
Read File
Copied Everything to GPU memory
Start traversing the tree

GPGPU-Sim PTX: cudaLaunch for 0x0x401519 (mode=performance simulation) on stream 0
GPGPU-Sim PTX: pushing kernel '_Z6KernelP4NodePiPbS2_S2_S1_i' to stream 0, gridDim= (128,1,1) blockDim = (512,1,1) 
GPGPU-Sim uArch: Shader 1 bind to kernel 1 '_Z6KernelP4NodePiPbS2_S2_S1_i'
GPGPU-Sim uArch: CTA/core = 4, limited by: threads
GPGPU-Sim uArch: Shader 2 bind to kernel 1 '_Z6KernelP4NodePiPbS2_S2_S1_i'
GPGPU-Sim uArch: Shader 3 bind to kernel 1 '_Z6KernelP4NodePiPbS2_S2_S1_i'
GPGPU-Sim uArch: Shader 4 bind to kernel 1 '_Z6KernelP4NodePiPbS2_S2_S1_i'
GPGPU-Sim uArch: Shader 5 bind to kernel 1 '_Z6KernelP4NodePiPbS2_S2_S1_i'
GPGPU-Sim uArch: Shader 6 bind to kernel 1 '_Z6KernelP4NodePiPbS2_S2_S1_i'
GPGPU-Sim uArch: Shader 7 bind to kernel 1 '_Z6KernelP4NodePiPbS2_S2_S1_i'
GPGPU-Sim uArch: Shader 8 bind to kernel 1 '_Z6KernelP4NodePiPbS2_S2_S1_i'
GPGPU-Sim uArch: Shader 9 bind to kernel 1 '_Z6KernelP4NodePiPbS2_S2_S1_i'
GPGPU-Sim uArch: Shader 10 bind to kernel 1 '_Z6KernelP4NodePiPbS2_S2_S1_i'
GPGPU-Sim uArch: Shader 11 bind to kernel 1 '_Z6KernelP4NodePiPbS2_S2_S1_i'
GPGPU-Sim uArch: Shader 12 bind to kernel 1 '_Z6KernelP4NodePiPbS2_S2_S1_i'
GPGPU-Sim uArch: Shader 13 bind to kernel 1 '_Z6KernelP4NodePiPbS2_S2_S1_i'
GPGPU-Sim uArch: Shader 14 bind to kernel 1 '_Z6KernelP4NodePiPbS2_S2_S1_i'
GPGPU-Sim uArch: Shader 15 bind to kernel 1 '_Z6KernelP4NodePiPbS2_S2_S1_i'
GPGPU-Sim uArch: Shader 16 bind to kernel 1 '_Z6KernelP4NodePiPbS2_S2_S1_i'
GPGPU-Sim uArch: Shader 17 bind to kernel 1 '_Z6KernelP4NodePiPbS2_S2_S1_i'
GPGPU-Sim uArch: Shader 18 bind to kernel 1 '_Z6KernelP4NodePiPbS2_S2_S1_i'
GPGPU-Sim uArch: Shader 19 bind to kernel 1 '_Z6KernelP4NodePiPbS2_S2_S1_i'
GPGPU-Sim uArch: Shader 20 bind to kernel 1 '_Z6KernelP4NodePiPbS2_S2_S1_i'
GPGPU-Sim uArch: Shader 21 bind to kernel 1 '_Z6KernelP4NodePiPbS2_S2_S1_i'
GPGPU-Sim uArch: Shader 22 bind to kernel 1 '_Z6KernelP4NodePiPbS2_S2_S1_i'
GPGPU-Sim uArch: Shader 23 bind to kernel 1 '_Z6KernelP4NodePiPbS2_S2_S1_i'
GPGPU-Sim uArch: Shader 24 bind to kernel 1 '_Z6KernelP4NodePiPbS2_S2_S1_i'
GPGPU-Sim uArch: Shader 25 bind to kernel 1 '_Z6KernelP4NodePiPbS2_S2_S1_i'
GPGPU-Sim uArch: Shader 26 bind to kernel 1 '_Z6KernelP4NodePiPbS2_S2_S1_i'
GPGPU-Sim uArch: Shader 27 bind to kernel 1 '_Z6KernelP4NodePiPbS2_S2_S1_i'
GPGPU-Sim uArch: Shader 0 bind to kernel 1 '_Z6KernelP4NodePiPbS2_S2_S1_i'
GPGPU-Sim uArch: Shader 2 bind to kernel 1 '_Z6KernelP4NodePiPbS2_S2_S1_i'
GPGPU-Sim uArch: Shader 3 bind to kernel 1 '_Z6KernelP4NodePiPbS2_S2_S1_i'
GPGPU-Sim uArch: Shader 4 bind to kernel 1 '_Z6KernelP4NodePiPbS2_S2_S1_i'
GPGPU-Sim uArch: Shader 5 bind to kernel 1 '_Z6KernelP4NodePiPbS2_S2_S1_i'
GPGPU-Sim uArch: Shader 6 bind to kernel 1 '_Z6KernelP4NodePiPbS2_S2_S1_i'
GPGPU-Sim uArch: Shader 7 bind to kernel 1 '_Z6KernelP4NodePiPbS2_S2_S1_i'
GPGPU-Sim uArch: Shader 8 bind to kernel 1 '_Z6KernelP4NodePiPbS2_S2_S1_i'
GPGPU-Sim uArch: Shader 9 bind to kernel 1 '_Z6KernelP4NodePiPbS2_S2_S1_i'
GPGPU-Sim uArch: Shader 10 bind to kernel 1 '_Z6KernelP4NodePiPbS2_S2_S1_i'
GPGPU-Sim uArch: Shader 11 bind to kernel 1 '_Z6KernelP4NodePiPbS2_S2_S1_i'
GPGPU-Sim uArch: Shader 12 bind to kernel 1 '_Z6KernelP4NodePiPbS2_S2_S1_i'
GPGPU-Sim uArch: Shader 13 bind to kernel 1 '_Z6KernelP4NodePiPbS2_S2_S1_i'
GPGPU-Sim uArch: Shader 14 bind to kernel 1 '_Z6KernelP4NodePiPbS2_S2_S1_i'
GPGPU-Sim uArch: Shader 15 bind to kernel 1 '_Z6KernelP4NodePiPbS2_S2_S1_i'
GPGPU-Sim uArch: Shader 16 bind to kernel 1 '_Z6KernelP4NodePiPbS2_S2_S1_i'
Destroy streams for kernel 1: size 0
kernel_name = _Z6KernelP4NodePiPbS2_S2_S1_i 
kernel_launch_uid = 1 
gpu_sim_cycle = 93085
gpu_sim_insn = 1245376
gpu_ipc =      13.3789
gpu_tot_sim_cycle = 317771
gpu_tot_sim_insn = 1245376
gpu_tot_ipc =       3.9191
gpu_tot_issued_cta = 128
max_total_param_size = 0
gpu_stall_dramfull = 0
gpu_stall_icnt2sh    = 2214
partiton_reqs_in_parallel = 2047870
partiton_reqs_in_parallel_total    = 0
partiton_level_parallism =      22.0000
partiton_level_parallism_total  =       6.4445
partiton_reqs_in_parallel_util = 2047870
partiton_reqs_in_parallel_util_total    = 0
gpu_sim_cycle_parition_util = 93085
gpu_tot_sim_cycle_parition_util    = 0
partiton_level_parallism_util =      22.0000
partiton_level_parallism_util_total  =      22.0000
partiton_replys_in_parallel = 2220
partiton_replys_in_parallel_total    = 0
L2_BW  =       2.2605 GB/Sec
L2_BW_total  =       0.6622 GB/Sec
gpu_total_sim_rate=7882

========= Core cache stats =========
L1I_cache:
	L1I_total_cache_accesses = 22632
	L1I_total_cache_misses = 2778
	L1I_total_cache_miss_rate = 0.1227
	L1I_total_cache_pending_hits = 0
	L1I_total_cache_reservation_fails = 6846
L1D_cache:
	L1D_cache_core[0]: Access = 0, Miss = 0, Miss_rate = -nan, Pending_hits = 0, Reservation_fails = 0
	L1D_cache_core[1]: Access = 0, Miss = 0, Miss_rate = -nan, Pending_hits = 0, Reservation_fails = 0
	L1D_cache_core[2]: Access = 0, Miss = 0, Miss_rate = -nan, Pending_hits = 0, Reservation_fails = 0
	L1D_cache_core[3]: Access = 0, Miss = 0, Miss_rate = -nan, Pending_hits = 0, Reservation_fails = 0
	L1D_cache_core[4]: Access = 0, Miss = 0, Miss_rate = -nan, Pending_hits = 0, Reservation_fails = 0
	L1D_cache_core[5]: Access = 0, Miss = 0, Miss_rate = -nan, Pending_hits = 0, Reservation_fails = 0
	L1D_cache_core[6]: Access = 0, Miss = 0, Miss_rate = -nan, Pending_hits = 0, Reservation_fails = 0
	L1D_cache_core[7]: Access = 0, Miss = 0, Miss_rate = -nan, Pending_hits = 0, Reservation_fails = 0
	L1D_cache_core[8]: Access = 0, Miss = 0, Miss_rate = -nan, Pending_hits = 0, Reservation_fails = 0
	L1D_cache_core[9]: Access = 0, Miss = 0, Miss_rate = -nan, Pending_hits = 0, Reservation_fails = 0
	L1D_cache_core[10]: Access = 0, Miss = 0, Miss_rate = -nan, Pending_hits = 0, Reservation_fails = 0
	L1D_cache_core[11]: Access = 0, Miss = 0, Miss_rate = -nan, Pending_hits = 0, Reservation_fails = 0
	L1D_cache_core[12]: Access = 0, Miss = 0, Miss_rate = -nan, Pending_hits = 0, Reservation_fails = 0
	L1D_cache_core[13]: Access = 0, Miss = 0, Miss_rate = -nan, Pending_hits = 0, Reservation_fails = 0
	L1D_cache_core[14]: Access = 0, Miss = 0, Miss_rate = -nan, Pending_hits = 0, Reservation_fails = 0
	L1D_cache_core[15]: Access = 0, Miss = 0, Miss_rate = -nan, Pending_hits = 0, Reservation_fails = 0
	L1D_cache_core[16]: Access = 0, Miss = 0, Miss_rate = -nan, Pending_hits = 0, Reservation_fails = 0
	L1D_cache_core[17]: Access = 0, Miss = 0, Miss_rate = -nan, Pending_hits = 0, Reservation_fails = 0
	L1D_cache_core[18]: Access = 0, Miss = 0, Miss_rate = -nan, Pending_hits = 0, Reservation_fails = 0
	L1D_cache_core[19]: Access = 0, Miss = 0, Miss_rate = -nan, Pending_hits = 0, Reservation_fails = 0
	L1D_cache_core[20]: Access = 0, Miss = 0, Miss_rate = -nan, Pending_hits = 0, Reservation_fails = 0
	L1D_cache_core[21]: Access = 0, Miss = 0, Miss_rate = -nan, Pending_hits = 0, Reservation_fails = 0
	L1D_cache_core[22]: Access = 0, Miss = 0, Miss_rate = -nan, Pending_hits = 0, Reservation_fails = 0
	L1D_cache_core[23]: Access = 0, Miss = 0, Miss_rate = -nan, Pending_hits = 0, Reservation_fails = 0
	L1D_cache_core[24]: Access = 0, Miss = 0, Miss_rate = -nan, Pending_hits = 0, Reservation_fails = 0
	L1D_cache_core[25]: Access = 0, Miss = 0, Miss_rate = -nan, Pending_hits = 0, Reservation_fails = 0
	L1D_cache_core[26]: Access = 0, Miss = 0, Miss_rate = -nan, Pending_hits = 0, Reservation_fails = 0
	L1D_cache_core[27]: Access = 0, Miss = 0, Miss_rate = -nan, Pending_hits = 0, Reservation_fails = 0
	L1D_total_cache_accesses = 0
	L1D_total_cache_misses = 0
	L1D_total_cache_pending_hits = 0
	L1D_total_cache_reservation_fails = 0
	L1D_cache_data_port_util = 0.000
	L1D_cache_fill_port_util = 0.000
L1C_cache:
	L1C_total_cache_accesses = 14336
	L1C_total_cache_misses = 1792
	L1C_total_cache_miss_rate = 0.1250
	L1C_total_cache_pending_hits = 0
	L1C_total_cache_reservation_fails = 4886
L1T_cache:
	L1T_total_cache_accesses = 0
	L1T_total_cache_misses = 0
	L1T_total_cache_pending_hits = 0
	L1T_total_cache_reservation_fails = 0

Total_core_cache_stats:
	Total_core_cache_stats_breakdown[GLOBAL_ACC_R][HIT] = 0
	Total_core_cache_stats_breakdown[GLOBAL_ACC_R][HIT_RESERVED] = 0
	Total_core_cache_stats_breakdown[GLOBAL_ACC_R][MISS] = 0
	Total_core_cache_stats_breakdown[GLOBAL_ACC_R][RESERVATION_FAIL] = 0
	Total_core_cache_stats_breakdown[LOCAL_ACC_R][HIT] = 0
	Total_core_cache_stats_breakdown[LOCAL_ACC_R][HIT_RESERVED] = 0
	Total_core_cache_stats_breakdown[LOCAL_ACC_R][MISS] = 0
	Total_core_cache_stats_breakdown[LOCAL_ACC_R][RESERVATION_FAIL] = 0
	Total_core_cache_stats_breakdown[CONST_ACC_R][HIT] = 12544
	Total_core_cache_stats_breakdown[CONST_ACC_R][HIT_RESERVED] = 0
	Total_core_cache_stats_breakdown[CONST_ACC_R][MISS] = 1792
	Total_core_cache_stats_breakdown[CONST_ACC_R][RESERVATION_FAIL] = 4886
	Total_core_cache_stats_breakdown[TEXTURE_ACC_R][HIT] = 0
	Total_core_cache_stats_breakdown[TEXTURE_ACC_R][HIT_RESERVED] = 0
	Total_core_cache_stats_breakdown[TEXTURE_ACC_R][MISS] = 0
	Total_core_cache_stats_breakdown[TEXTURE_ACC_R][RESERVATION_FAIL] = 0
	Total_core_cache_stats_breakdown[GLOBAL_ACC_W][HIT] = 0
	Total_core_cache_stats_breakdown[GLOBAL_ACC_W][HIT_RESERVED] = 0
	Total_core_cache_stats_breakdown[GLOBAL_ACC_W][MISS] = 0
	Total_core_cache_stats_breakdown[GLOBAL_ACC_W][RESERVATION_FAIL] = 0
	Total_core_cache_stats_breakdown[LOCAL_ACC_W][HIT] = 0
	Total_core_cache_stats_breakdown[LOCAL_ACC_W][HIT_RESERVED] = 0
	Total_core_cache_stats_breakdown[LOCAL_ACC_W][MISS] = 0
	Total_core_cache_stats_breakdown[LOCAL_ACC_W][RESERVATION_FAIL] = 0
	Total_core_cache_stats_breakdown[L1_WRBK_ACC][HIT] = 0
	Total_core_cache_stats_breakdown[L1_WRBK_ACC][HIT_RESERVED] = 0
	Total_core_cache_stats_breakdown[L1_WRBK_ACC][MISS] = 0
	Total_core_cache_stats_breakdown[L1_WRBK_ACC][RESERVATION_FAIL] = 0
	Total_core_cache_stats_breakdown[L2_WRBK_ACC][HIT] = 0
	Total_core_cache_stats_breakdown[L2_WRBK_ACC][HIT_RESERVED] = 0
	Total_core_cache_stats_breakdown[L2_WRBK_ACC][MISS] = 0
	Total_core_cache_stats_breakdown[L2_WRBK_ACC][RESERVATION_FAIL] = 0
	Total_core_cache_stats_breakdown[INST_ACC_R][HIT] = 19854
	Total_core_cache_stats_breakdown[INST_ACC_R][HIT_RESERVED] = 0
	Total_core_cache_stats_breakdown[INST_ACC_R][MISS] = 2778
	Total_core_cache_stats_breakdown[INST_ACC_R][RESERVATION_FAIL] = 6846
	Total_core_cache_stats_breakdown[L1_WR_ALLOC_R][HIT] = 0
	Total_core_cache_stats_breakdown[L1_WR_ALLOC_R][HIT_RESERVED] = 0
	Total_core_cache_stats_breakdown[L1_WR_ALLOC_R][MISS] = 0
	Total_core_cache_stats_breakdown[L1_WR_ALLOC_R][RESERVATION_FAIL] = 0
	Total_core_cache_stats_breakdown[L2_WR_ALLOC_R][HIT] = 0
	Total_core_cache_stats_breakdown[L2_WR_ALLOC_R][HIT_RESERVED] = 0
	Total_core_cache_stats_breakdown[L2_WR_ALLOC_R][MISS] = 0
	Total_core_cache_stats_breakdown[L2_WR_ALLOC_R][RESERVATION_FAIL] = 0
	Total_core_cache_stats_breakdown[CONST_ACC_R][TOTAL_ACCESS] = 14336
	Total_core_cache_stats_breakdown[INST_ACC_R][TOTAL_ACCESS] = 22632
Shader 0 warp_id issue ditsribution:
warp_id:
0, 1, 2, 3, 4, 5, 6, 7, 8, 9, 10, 11, 12, 13, 14, 15, 16, 17, 18, 19, 20, 21, 22, 23, 24, 25, 26, 27, 28, 29, 30, 31, 32, 33, 34, 35, 36, 37, 38, 39, 40, 41, 42, 43, 44, 45, 46, 47, 48, 49, 50, 51, 52, 53, 54, 55, 56, 57, 58, 59, 60, 61, 62, 63, 
distro:
23, 23, 22, 23, 22, 23, 22, 23, 23, 23, 23, 23, 23, 23, 23, 23, 23, 23, 23, 23, 23, 23, 23, 23, 23, 23, 23, 23, 23, 23, 23, 23, 23, 23, 23, 23, 23, 23, 23, 23, 23, 23, 23, 23, 23, 23, 23, 23, 23, 23, 23, 23, 23, 23, 23, 23, 23, 23, 23, 23, 23, 23, 23, 23, 
gpgpu_n_tot_thrd_icount = 1317216
gpgpu_n_tot_w_icount = 41163
gpgpu_n_stall_shd_mem = 5197
gpgpu_n_mem_read_local = 0
gpgpu_n_mem_write_local = 0
gpgpu_n_mem_read_global = 2090
gpgpu_n_mem_write_global = 17
gpgpu_n_mem_texture = 0
gpgpu_n_mem_const = 28
gpgpu_n_load_insn  = 65578
gpgpu_n_store_insn = 17
gpgpu_n_shmem_insn = 0
gpgpu_n_tex_insn = 0
gpgpu_n_const_mem_insn = 0
gpgpu_n_param_mem_insn = 458752
gpgpu_n_shmem_bkconflict = 0
gpgpu_n_cache_bkconflict = 0
gpgpu_n_intrawarp_mshr_merge = 0
gpgpu_n_cmem_portconflict = 4886
gpgpu_stall_shd_mem[c_mem][bk_conf] = 4886
gpgpu_stall_shd_mem[c_mem][mshr_rc] = 0
gpgpu_stall_shd_mem[c_mem][icnt_rc] = 0
gpgpu_stall_shd_mem[c_mem][data_port_stall] = 0
gpgpu_stall_shd_mem[t_mem][mshr_rc] = 0
gpgpu_stall_shd_mem[t_mem][icnt_rc] = 0
gpgpu_stall_shd_mem[t_mem][data_port_stall] = 0
gpgpu_stall_shd_mem[s_mem][bk_conf] = 0
gpgpu_stall_shd_mem[gl_mem][bk_conf] = 0
gpgpu_stall_shd_mem[gl_mem][coal_stall] = 0
gpgpu_stall_shd_mem[gl_mem][data_port_stall] = 0
gpgpu_stall_shd_mem[g_mem_ld][mshr_rc] = 0
gpgpu_stall_shd_mem[g_mem_ld][icnt_rc] = 311
gpgpu_stall_shd_mem[g_mem_ld][wb_icnt_rc] = 0
gpgpu_stall_shd_mem[g_mem_ld][wb_rsrv_fail] = 0
gpgpu_stall_shd_mem[g_mem_st][mshr_rc] = 0
gpgpu_stall_shd_mem[g_mem_st][icnt_rc] = 0
gpgpu_stall_shd_mem[g_mem_st][wb_icnt_rc] = 0
gpgpu_stall_shd_mem[g_mem_st][wb_rsrv_fail] = 0
gpgpu_stall_shd_mem[l_mem_ld][mshr_rc] = 0
gpgpu_stall_shd_mem[l_mem_ld][icnt_rc] = 0
gpgpu_stall_shd_mem[l_mem_ld][wb_icnt_rc] = 0
gpgpu_stall_shd_mem[l_mem_ld][wb_rsrv_fail] = 0
gpgpu_stall_shd_mem[l_mem_st][mshr_rc] = 0
gpgpu_stall_shd_mem[l_mem_st][icnt_rc] = 0
gpgpu_stall_shd_mem[l_mem_ld][wb_icnt_rc] = 0
gpgpu_stall_shd_mem[l_mem_ld][wb_rsrv_fail] = 0
gpu_reg_bank_conflict_stalls = 0
Warp Occupancy Distribution:
Stall:16015	W0_Idle:4511914	W0_Scoreboard:637826	W1:203	W2:0	W3:0	W4:0	W5:0	W6:0	W7:0	W8:0	W9:0	W10:0	W11:0	W12:0	W13:0	W14:0	W15:0	W16:0	W17:0	W18:0	W19:0	W20:0	W21:0	W22:0	W23:0	W24:0	W25:0	W26:0	W27:0	W28:0	W29:0	W30:0	W31:0	W32:40960
traffic_breakdown_coretomem[CONST_ACC_R] = 224 {8:28,}
traffic_breakdown_coretomem[GLOBAL_ACC_R] = 16720 {8:2090,}
traffic_breakdown_coretomem[GLOBAL_ACC_W] = 680 {40:17,}
traffic_breakdown_coretomem[INST_ACC_R] = 680 {8:85,}
traffic_breakdown_memtocore[CONST_ACC_R] = 2016 {72:28,}
traffic_breakdown_memtocore[GLOBAL_ACC_R] = 83600 {40:2090,}
traffic_breakdown_memtocore[GLOBAL_ACC_W] = 136 {8:17,}
traffic_breakdown_memtocore[INST_ACC_R] = 11560 {136:85,}
maxmrqlatency = 58 
maxdqlatency = 0 
maxmflatency = 41720 
averagemflatency = 8426 
max_icnt2mem_latency = 41485 
max_icnt2sh_latency = 317517 
mrq_lat_table:171 	49 	48 	63 	71 	158 	0 	0 	0 	0 	0 	0 	0 	0 	0 	0 	0 	0 	0 	0 	0 	0 	0 	0 	0 	0 	0 	0 	0 	0 	0 	0 	
dq_lat_table:0 	0 	0 	0 	0 	0 	0 	0 	0 	0 	0 	0 	0 	0 	0 	0 	0 	0 	0 	0 	0 	0 	0 	0 	0 	0 	0 	0 	0 	0 	0 	0 	
mf_lat_table:0 	0 	0 	0 	0 	0 	0 	93 	230 	0 	0 	512 	1 	1292 	4 	3 	0 	0 	0 	0 	0 	0 	0 	0 	0 	0 	0 	0 	0 	0 	0 	0 	
icnt2mem_lat_table:0 	0 	133 	23 	22 	0 	230 	0 	0 	0 	0 	512 	2 	1291 	4 	3 	0 	0 	0 	0 	0 	0 	0 	0 	
icnt2sh_lat_table:0 	0 	655 	956 	503 	4 	0 	0 	0 	0 	0 	0 	0 	0 	0 	0 	0 	1 	16 	0 	0 	0 	0 	0 	
mf_lat_pw_table:0 	0 	0 	0 	0 	0 	0 	13 	0 	0 	0 	2 	2 	6 	1 	2 	0 	0 	0 	0 	0 	0 	0 	0 	0 	0 	0 	0 	0 	0 	0 	0 	
maximum concurrent accesses to same row:
dram[0]:         1         0         0         0         0         0         0         0         0         0         0         0         0         0         0         0 
dram[1]:         0         0         0         0         0         0         0         0         0         0         0         0         0         0         0         0 
dram[2]:         0         0         0         0         0         0         0         0         0         0         0         0         0         0         0         0 
dram[3]:         0         0         0         0         0         0         0         0         0         0         0         0         0         0         0         0 
dram[4]:         0         0         0         0         0         0         0         0         0         0         0         0         0         0         1         1 
dram[5]:         0         0         0         0         0         0         0         0         0         0         0         0         0         0        16         6 
dram[6]:         0         0         0         0         0         0         0         0         0         0         0         0         0         0         0         0 
dram[7]:         0         0         0         0         0         0         0         0         0         0         0         0         0         0         0         0 
dram[8]:         0         0         0         0         0         0         0         0         0         0         0         0         0         0         0         0 
dram[9]:         0         0         0         0         0         0         1         0         0         0         0         0         0         0         0         0 
dram[10]:         0         0         0         0         0         0         0         0         0         0         0         0         0         0         0        16 
maximum service time to same row:
dram[0]:     11515     11519     64576     64575         0         0     84579         0         0         0         0         0         0         0      4580      4584 
dram[1]:     11498     11500         0         0         0         0         0     46748         0         0         0         0         0         0      4580      4582 
dram[2]:     11493     11493     64573         0     50172         0         0         0     84581         0         0         0         0         0      4580      4581 
dram[3]:     11497     11500         0         0         0     47604     48460         0         0     84582         0         0         0         0      4580      4581 
dram[4]:     11500     11502         0         0     36565         0         0         0         0         0         0         0         0         0      4352      3792 
dram[5]:     11504     11507         0         0     49316         0         0         0         0         0         0         0         0         0     58497      6609 
dram[6]:     11507     11509     46035         0         0         0         0         0         0         0         0         0         0         0      4580      4584 
dram[7]:     11503     11507         0         0     54275         0         0         0         0         0         0     92819         0         0      4580      4584 
dram[8]:     11503     11507         0         0         0         0         0         0         0         0         0         0         0         0      4580      4584 
dram[9]:     11500     11501         0     64579         0         0     14050     54277         0         0         0         0         0         0      4580      4584 
dram[10]:     11507     11508         0         0     51674         0         0         0         0         0         0         0         0         0      4580     68228 
average row accesses per activate:
dram[0]:  9.000000 10.000000  2.000000  2.000000      -nan      -nan  2.000000      -nan      -nan      -nan      -nan      -nan      -nan      -nan 16.000000 16.000000 
dram[1]: 10.000000  8.000000      -nan      -nan      -nan      -nan      -nan  1.000000      -nan      -nan      -nan      -nan      -nan      -nan 16.000000 16.000000 
dram[2]:  8.000000  8.000000  2.000000      -nan  1.000000      -nan      -nan      -nan  2.000000      -nan      -nan      -nan      -nan      -nan 16.000000 16.000000 
dram[3]:  7.000000  7.000000      -nan      -nan      -nan  2.000000  1.000000      -nan      -nan  2.000000      -nan      -nan      -nan      -nan 16.000000 16.000000 
dram[4]:  7.000000  7.000000      -nan      -nan  1.000000      -nan      -nan      -nan      -nan      -nan      -nan      -nan      -nan      -nan  8.500000  8.500000 
dram[5]:  7.000000  7.000000      -nan      -nan  1.000000      -nan      -nan      -nan      -nan      -nan      -nan      -nan      -nan      -nan  6.333333  5.666667 
dram[6]:  7.000000  7.000000  1.000000      -nan      -nan      -nan      -nan      -nan      -nan      -nan      -nan      -nan      -nan      -nan 16.000000 16.000000 
dram[7]:  9.000000  7.000000      -nan      -nan  2.000000      -nan      -nan      -nan      -nan      -nan      -nan  2.000000      -nan      -nan 16.000000 16.000000 
dram[8]:  7.000000  7.000000      -nan      -nan      -nan      -nan      -nan      -nan      -nan      -nan      -nan      -nan      -nan      -nan 16.000000 16.000000 
dram[9]:  7.000000  7.000000      -nan  2.000000      -nan      -nan  1.000000  2.000000      -nan      -nan      -nan      -nan      -nan      -nan 16.000000 16.000000 
dram[10]:  9.000000  7.000000      -nan      -nan  1.000000      -nan      -nan      -nan      -nan      -nan      -nan      -nan      -nan      -nan 16.000000  9.000000 
average row locality = 560/71 = 7.887324
number of total memory accesses made:
dram[0]:         0         0         0         0         0         0         0         0         0         0         0         0         0         0         0         0 
dram[1]:         0         0         0         0         0         0         0         0         0         0         0         0         0         0         0         0 
dram[2]:         0         0         0         0         0         0         0         0         0         0         0         0         0         0         0         0 
dram[3]:         0         0         0         0         0         0         0         0         0         0         0         0         0         0         0         0 
dram[4]:         0         0         0         0         0         0         0         0         0         0         0         0         0         0         0         0 
dram[5]:         0         0         0         0         0         0         0         0         0         0         0         0         0         0         0         0 
dram[6]:         0         0         0         0         0         0         0         0         0         0         0         0         0         0         0         0 
dram[7]:         0         0         0         0         0         0         0         0         0         0         0         0         0         0         0         0 
dram[8]:         0         0         0         0         0         0         0         0         0         0         0         0         0         0         0         0 
dram[9]:         0         0         0         0         0         0         0         0         0         0         0         0         0         0         0         0 
dram[10]:         0         0         0         0         0         0         0         0         0         0         0         0         0         0         0         0 
total accesses: 0
min_bank_accesses = 0!
min_chip_accesses = 0!
number of total read accesses:
dram[0]:         9         9         1         1         0         0         1         0         0         0         0         0         0         0        16        16 
dram[1]:         9         8         0         0         0         0         0         1         0         0         0         0         0         0        16        16 
dram[2]:         8         8         1         0         1         0         0         0         1         0         0         0         0         0        16        16 
dram[3]:         7         7         0         0         0         2         1         0         0         1         0         0         0         0        16        16 
dram[4]:         7         7         0         0         1         0         0         0         0         0         0         0         0         0        17        17 
dram[5]:         7         7         0         0         1         0         0         0         0         0         0         0         0         0        18        17 
dram[6]:         7         7         1         0         0         0         0         0         0         0         0         0         0         0        16        16 
dram[7]:         8         7         0         0         1         0         0         0         0         0         0         1         0         0        16        16 
dram[8]:         7         7         0         0         0         0         0         0         0         0         0         0         0         0        16        16 
dram[9]:         7         7         0         1         0         0         2         1         0         0         0         0         0         0        16        16 
dram[10]:         8         7         0         0         1         0         0         0         0         0         0         0         0         0        16        17 
total reads: 544
min_bank_accesses = 0!
chip skew: 53/46 = 1.15
number of total write accesses:
dram[0]:         0         1         1         1         0         0         1         0         0         0         0         0         0         0         0         0 
dram[1]:         1         0         0         0         0         0         0         0         0         0         0         0         0         0         0         0 
dram[2]:         0         0         1         0         0         0         0         0         1         0         0         0         0         0         0         0 
dram[3]:         0         0         0         0         0         0         0         0         0         1         0         0         0         0         0         0 
dram[4]:         0         0         0         0         0         0         0         0         0         0         0         0         0         0         0         0 
dram[5]:         0         0         0         0         0         0         0         0         0         0         0         0         0         0         1         0 
dram[6]:         0         0         0         0         0         0         0         0         0         0         0         0         0         0         0         0 
dram[7]:         1         0         0         0         1         0         0         0         0         0         0         1         0         0         0         0 
dram[8]:         0         0         0         0         0         0         0         0         0         0         0         0         0         0         0         0 
dram[9]:         0         0         0         1         0         0         0         1         0         0         0         0         0         0         0         0 
dram[10]:         1         0         0         0         0         0         0         0         0         0         0         0         0         0         0         1 
total reads: 16
min_bank_accesses = 0!
min_chip_accesses = 0!
average mf latency per bank:
dram[0]:      24633     22463      7963      6731    none      none       16363    none      none      none      none      none      none      none       32113     32199
dram[1]:      22623     26849    none      none      none      none      none         352    none      none      none      none      none      none       32086     32219
dram[2]:      26896     26873      7532    none         352    none      none      none       17115    none      none      none      none      none       32069     32190
dram[3]:      30533     30459    none      none      none         298       352    none      none       17543    none      none      none      none       32047     32151
dram[4]:      24656     24633    none      none       11647    none      none      none      none      none      none      none      none      none       30154     30275
dram[5]:      24644     24590    none      none         352    none      none      none      none      none      none      none      none      none       28260     30247
dram[6]:      24653     24595     10367    none      none      none      none      none      none      none      none      none      none      none       32032     32105
dram[7]:      20565     24561    none      none        3246    none      none      none      none      none      none       20860    none      none       32031     32116
dram[8]:      24640     24614    none      none      none      none      none      none      none      none      none      none      none      none       32014     32109
dram[9]:      24655     24590    none        8818    none      none       11481      4103    none      none      none      none      none      none       33736     33847
dram[10]:      20759     24684    none      none         250    none      none      none      none      none      none      none      none      none       33738     31566
maximum mf latency per bank:
dram[0]:      10703     10680     15926     13462         0         0     32726         0         0         0         0         0         0         0     10678     10711
dram[1]:      11618     10660         0         0         0         0         0       352         0         0         0         0         0         0     10663     10717
dram[2]:      10675     10690     15064         0       352         0         0         0     34230         0         0         0         0         0     10676     10724
dram[3]:      10659     10638         0         0         0       352       352         0         0     35087         0         0         0         0     10637     10672
dram[4]:      10636     10658         0         0     11647         0         0         0         0         0         0         0         0         0     10633     10664
dram[5]:      10633     10644         0         0       352         0         0         0         0         0         0         0         0         0     24177     10671
dram[6]:      10638     10619      9457         0         0         0         0         0         0         0         0         0         0         0     10646     10665
dram[7]:      12701     10615         0         0      6492         0         0         0         0         0         0     41720         0         0     10632     10663
dram[8]:      10632     10627         0         0         0         0         0         0         0         0         0         0         0         0     10631     10662
dram[9]:      10638     10637         0     17637         0         0     10414      8206         0         0         0         0         0         0     10631     10670
dram[10]:      14201     10678         0         0       250         0         0         0         0         0         0         0         0         0     10646     25891
Memory Partition 0: 
Cache L2_bank_000:
MSHR contents

Cache L2_bank_001:
MSHR contents

In Dram Latency Queue (total = 0): 
DRAM[0]: 16 bks, busW=4 BL=8 CL=12, tRRD=2 tCCD=6, tRCD=12 tRAS=28 tRP=12 tRC=40
n_cmd=172844 n_nop=172619 n_act=8 n_pre=1 n_req=57 n_rd=212 n_write=4 bw_util=0.002499
n_activity=601 dram_eff=0.7188
bk0: 36a 172734i bk1: 36a 172704i bk2: 4a 172813i bk3: 4a 172804i bk4: 0a 172841i bk5: 0a 172842i bk6: 4a 172818i bk7: 0a 172842i bk8: 0a 172843i bk9: 0a 172843i bk10: 0a 172843i bk11: 0a 172844i bk12: 0a 172846i bk13: 0a 172847i bk14: 64a 172700i bk15: 64a 172592i 
dram_util_bins: 0 0 0 0 0 0 0 0 0 0
dram_eff_bins: 0 0 0 0 0 0 0 0 0 0
mrqq: max=8 avg=0.00895605
Memory Partition 1: 
Cache L2_bank_002:
MSHR contents

Cache L2_bank_003:
MSHR contents

In Dram Latency Queue (total = 0): 
DRAM[1]: 16 bks, busW=4 BL=8 CL=12, tRRD=2 tCCD=6, tRCD=12 tRAS=28 tRP=12 tRC=40
n_cmd=172844 n_nop=172638 n_act=5 n_pre=0 n_req=51 n_rd=200 n_write=1 bw_util=0.002326
n_activity=506 dram_eff=0.7945
bk0: 36a 172704i bk1: 32a 172676i bk2: 0a 172843i bk3: 0a 172844i bk4: 0a 172844i bk5: 0a 172844i bk6: 0a 172844i bk7: 4a 172824i bk8: 0a 172843i bk9: 0a 172843i bk10: 0a 172844i bk11: 0a 172844i bk12: 0a 172844i bk13: 0a 172845i bk14: 64a 172699i bk15: 64a 172587i 
dram_util_bins: 0 0 0 0 0 0 0 0 0 0
dram_eff_bins: 0 0 0 0 0 0 0 0 0 0
mrqq: max=10 avg=0.00892134
Memory Partition 2: 
Cache L2_bank_004:
MSHR contents

Cache L2_bank_005:
MSHR contents

In Dram Latency Queue (total = 0): 
DRAM[2]: 16 bks, busW=4 BL=8 CL=12, tRRD=2 tCCD=6, tRCD=12 tRAS=28 tRP=12 tRC=40
n_cmd=172844 n_nop=172631 n_act=7 n_pre=0 n_req=53 n_rd=204 n_write=2 bw_util=0.002384
n_activity=562 dram_eff=0.7331
bk0: 32a 172711i bk1: 32a 172673i bk2: 4a 172819i bk3: 0a 172843i bk4: 4a 172823i bk5: 0a 172842i bk6: 0a 172843i bk7: 0a 172843i bk8: 4a 172819i bk9: 0a 172843i bk10: 0a 172844i bk11: 0a 172844i bk12: 0a 172844i bk13: 0a 172846i bk14: 64a 172699i bk15: 64a 172587i 
dram_util_bins: 0 0 0 0 0 0 0 0 0 0
dram_eff_bins: 0 0 0 0 0 0 0 0 0 0
mrqq: max=12 avg=0.0102809
Memory Partition 3: 
Cache L2_bank_006:
MSHR contents

Cache L2_bank_007:
MSHR contents

In Dram Latency Queue (total = 0): 
DRAM[3]: 16 bks, busW=4 BL=8 CL=12, tRRD=2 tCCD=6, tRCD=12 tRAS=28 tRP=12 tRC=40
n_cmd=172844 n_nop=172636 n_act=7 n_pre=0 n_req=51 n_rd=200 n_write=1 bw_util=0.002326
n_activity=568 dram_eff=0.7077
bk0: 28a 172726i bk1: 28a 172692i bk2: 0a 172843i bk3: 0a 172844i bk4: 0a 172844i bk5: 8a 172817i bk6: 4a 172823i bk7: 0a 172842i bk8: 0a 172843i bk9: 4a 172818i bk10: 0a 172843i bk11: 0a 172845i bk12: 0a 172845i bk13: 0a 172846i bk14: 64a 172699i bk15: 64a 172585i 
dram_util_bins: 0 0 0 0 0 0 0 0 0 0
dram_eff_bins: 0 0 0 0 0 0 0 0 0 0
mrqq: max=10 avg=0.00952304
Memory Partition 4: 
Cache L2_bank_008:
MSHR contents

Cache L2_bank_009:
MSHR contents

In Dram Latency Queue (total = 0): 
DRAM[4]: 16 bks, busW=4 BL=8 CL=12, tRRD=2 tCCD=6, tRCD=12 tRAS=28 tRP=12 tRC=40
n_cmd=172844 n_nop=172639 n_act=7 n_pre=2 n_req=49 n_rd=196 n_write=0 bw_util=0.002268
n_activity=552 dram_eff=0.7101
bk0: 28a 172731i bk1: 28a 172698i bk2: 0a 172844i bk3: 0a 172844i bk4: 4a 172824i bk5: 0a 172842i bk6: 0a 172842i bk7: 0a 172842i bk8: 0a 172842i bk9: 0a 172844i bk10: 0a 172844i bk11: 0a 172845i bk12: 0a 172845i bk13: 0a 172847i bk14: 68a 172669i bk15: 68a 172555i 
dram_util_bins: 0 0 0 0 0 0 0 0 0 0
dram_eff_bins: 0 0 0 0 0 0 0 0 0 0
mrqq: max=10 avg=0.00948832
Memory Partition 5: 
Cache L2_bank_010:
MSHR contents

Cache L2_bank_011:
MSHR contents

In Dram Latency Queue (total = 0): 
DRAM[5]: 16 bks, busW=4 BL=8 CL=12, tRRD=2 tCCD=6, tRCD=12 tRAS=28 tRP=12 tRC=40
n_cmd=172844 n_nop=172630 n_act=9 n_pre=4 n_req=51 n_rd=200 n_write=1 bw_util=0.002326
n_activity=619 dram_eff=0.6494
bk0: 28a 172737i bk1: 28a 172710i bk2: 0a 172841i bk3: 0a 172842i bk4: 4a 172822i bk5: 0a 172841i bk6: 0a 172843i bk7: 0a 172843i bk8: 0a 172844i bk9: 0a 172844i bk10: 0a 172845i bk11: 0a 172846i bk12: 0a 172847i bk13: 0a 172849i bk14: 72a 172641i bk15: 68a 172556i 
dram_util_bins: 0 0 0 0 0 0 0 0 0 0
dram_eff_bins: 0 0 0 0 0 0 0 0 0 0
mrqq: max=9 avg=0.00823286
Memory Partition 6: 
Cache L2_bank_012:
MSHR contents

Cache L2_bank_013:
MSHR contents

In Dram Latency Queue (total = 0): 
DRAM[6]: 16 bks, busW=4 BL=8 CL=12, tRRD=2 tCCD=6, tRCD=12 tRAS=28 tRP=12 tRC=40
n_cmd=172844 n_nop=172651 n_act=5 n_pre=0 n_req=47 n_rd=188 n_write=0 bw_util=0.002175
n_activity=461 dram_eff=0.8156
bk0: 28a 172745i bk1: 28a 172710i bk2: 4a 172823i bk3: 0a 172842i bk4: 0a 172842i bk5: 0a 172842i bk6: 0a 172842i bk7: 0a 172842i bk8: 0a 172843i bk9: 0a 172844i bk10: 0a 172845i bk11: 0a 172845i bk12: 0a 172845i bk13: 0a 172847i bk14: 64a 172702i bk15: 64a 172594i 
dram_util_bins: 0 0 0 0 0 0 0 0 0 0
dram_eff_bins: 0 0 0 0 0 0 0 0 0 0
mrqq: max=8 avg=0.00807086
Memory Partition 7: 
Cache L2_bank_014:
MSHR contents

Cache L2_bank_015:
MSHR contents

In Dram Latency Queue (total = 0): 
DRAM[7]: 16 bks, busW=4 BL=8 CL=12, tRRD=2 tCCD=6, tRCD=12 tRAS=28 tRP=12 tRC=40
n_cmd=172844 n_nop=172639 n_act=6 n_pre=0 n_req=52 n_rd=196 n_write=3 bw_util=0.002303
n_activity=535 dram_eff=0.7439
bk0: 32a 172722i bk1: 28a 172714i bk2: 0a 172843i bk3: 0a 172844i bk4: 4a 172818i bk5: 0a 172842i bk6: 0a 172842i bk7: 0a 172842i bk8: 0a 172842i bk9: 0a 172845i bk10: 0a 172845i bk11: 4a 172819i bk12: 0a 172844i bk13: 0a 172845i bk14: 64a 172700i bk15: 64a 172590i 
dram_util_bins: 0 0 0 0 0 0 0 0 0 0
dram_eff_bins: 0 0 0 0 0 0 0 0 0 0
mrqq: max=9 avg=0.00772373
Memory Partition 8: 
Cache L2_bank_016:
MSHR contents

Cache L2_bank_017:
MSHR contents

In Dram Latency Queue (total = 0): 
DRAM[8]: 16 bks, busW=4 BL=8 CL=12, tRRD=2 tCCD=6, tRCD=12 tRAS=28 tRP=12 tRC=40
n_cmd=172844 n_nop=172656 n_act=4 n_pre=0 n_req=46 n_rd=184 n_write=0 bw_util=0.002129
n_activity=421 dram_eff=0.8741
bk0: 28a 172738i bk1: 28a 172705i bk2: 0a 172842i bk3: 0a 172843i bk4: 0a 172843i bk5: 0a 172843i bk6: 0a 172843i bk7: 0a 172843i bk8: 0a 172843i bk9: 0a 172845i bk10: 0a 172845i bk11: 0a 172845i bk12: 0a 172845i bk13: 0a 172846i bk14: 64a 172701i bk15: 64a 172593i 
dram_util_bins: 0 0 0 0 0 0 0 0 0 0
dram_eff_bins: 0 0 0 0 0 0 0 0 0 0
mrqq: max=10 avg=0.00840642
Memory Partition 9: 
Cache L2_bank_018:
MSHR contents

Cache L2_bank_019:
MSHR contents

In Dram Latency Queue (total = 0): 
DRAM[9]: 16 bks, busW=4 BL=8 CL=12, tRRD=2 tCCD=6, tRCD=12 tRAS=28 tRP=12 tRC=40
n_cmd=172844 n_nop=172633 n_act=8 n_pre=1 n_req=52 n_rd=200 n_write=2 bw_util=0.002337
n_activity=598 dram_eff=0.6756
bk0: 28a 172717i bk1: 28a 172688i bk2: 0a 172845i bk3: 4a 172819i bk4: 0a 172843i bk5: 0a 172843i bk6: 8a 172792i bk7: 4a 172816i bk8: 0a 172842i bk9: 0a 172842i bk10: 0a 172843i bk11: 0a 172844i bk12: 0a 172844i bk13: 0a 172846i bk14: 64a 172701i bk15: 64a 172588i 
dram_util_bins: 0 0 0 0 0 0 0 0 0 0
dram_eff_bins: 0 0 0 0 0 0 0 0 0 0
mrqq: max=11 avg=0.00982389
Memory Partition 10: 
Cache L2_bank_020:
MSHR contents

Cache L2_bank_021:
MSHR contents

In Dram Latency Queue (total = 0): 
DRAM[10]: 16 bks, busW=4 BL=8 CL=12, tRRD=2 tCCD=6, tRCD=12 tRAS=28 tRP=12 tRC=40
n_cmd=172844 n_nop=172639 n_act=6 n_pre=1 n_req=51 n_rd=196 n_write=2 bw_util=0.002291
n_activity=542 dram_eff=0.7306
bk0: 32a 172711i bk1: 28a 172691i bk2: 0a 172842i bk3: 0a 172843i bk4: 4a 172823i bk5: 0a 172841i bk6: 0a 172841i bk7: 0a 172841i bk8: 0a 172844i bk9: 0a 172844i bk10: 0a 172845i bk11: 0a 172846i bk12: 0a 172846i bk13: 0a 172847i bk14: 64a 172709i bk15: 68a 172550i 
dram_util_bins: 0 0 0 0 0 0 0 0 0 0
dram_eff_bins: 0 0 0 0 0 0 0 0 0 0
mrqq: max=11 avg=0.0092569

========= L2 cache stats =========
L2_cache_bank[0]: Access = 127, Miss = 27, Miss_rate = 0.213, Pending_hits = 99, Reservation_fails = 0
L2_cache_bank[1]: Access = 98, Miss = 26, Miss_rate = 0.265, Pending_hits = 72, Reservation_fails = 0
L2_cache_bank[2]: Access = 97, Miss = 25, Miss_rate = 0.258, Pending_hits = 72, Reservation_fails = 0
L2_cache_bank[3]: Access = 97, Miss = 25, Miss_rate = 0.258, Pending_hits = 72, Reservation_fails = 0
L2_cache_bank[4]: Access = 99, Miss = 27, Miss_rate = 0.273, Pending_hits = 72, Reservation_fails = 0
L2_cache_bank[5]: Access = 96, Miss = 24, Miss_rate = 0.250, Pending_hits = 72, Reservation_fails = 0
L2_cache_bank[6]: Access = 93, Miss = 24, Miss_rate = 0.258, Pending_hits = 69, Reservation_fails = 0
L2_cache_bank[7]: Access = 95, Miss = 26, Miss_rate = 0.274, Pending_hits = 69, Reservation_fails = 0
L2_cache_bank[8]: Access = 121, Miss = 25, Miss_rate = 0.207, Pending_hits = 96, Reservation_fails = 0
L2_cache_bank[9]: Access = 120, Miss = 24, Miss_rate = 0.200, Pending_hits = 96, Reservation_fails = 0
L2_cache_bank[10]: Access = 95, Miss = 26, Miss_rate = 0.274, Pending_hits = 69, Reservation_fails = 0
L2_cache_bank[11]: Access = 120, Miss = 24, Miss_rate = 0.200, Pending_hits = 96, Reservation_fails = 0
L2_cache_bank[12]: Access = 100, Miss = 24, Miss_rate = 0.240, Pending_hits = 69, Reservation_fails = 0
L2_cache_bank[13]: Access = 92, Miss = 23, Miss_rate = 0.250, Pending_hits = 69, Reservation_fails = 0
L2_cache_bank[14]: Access = 94, Miss = 25, Miss_rate = 0.266, Pending_hits = 69, Reservation_fails = 0
L2_cache_bank[15]: Access = 93, Miss = 24, Miss_rate = 0.258, Pending_hits = 69, Reservation_fails = 0
L2_cache_bank[16]: Access = 92, Miss = 23, Miss_rate = 0.250, Pending_hits = 69, Reservation_fails = 0
L2_cache_bank[17]: Access = 92, Miss = 23, Miss_rate = 0.250, Pending_hits = 69, Reservation_fails = 0
L2_cache_bank[18]: Access = 118, Miss = 25, Miss_rate = 0.212, Pending_hits = 69, Reservation_fails = 0
L2_cache_bank[19]: Access = 94, Miss = 25, Miss_rate = 0.266, Pending_hits = 69, Reservation_fails = 0
L2_cache_bank[20]: Access = 94, Miss = 25, Miss_rate = 0.266, Pending_hits = 69, Reservation_fails = 0
L2_cache_bank[21]: Access = 93, Miss = 24, Miss_rate = 0.258, Pending_hits = 69, Reservation_fails = 0
L2_total_cache_accesses = 2220
L2_total_cache_misses = 544
L2_total_cache_miss_rate = 0.2450
L2_total_cache_pending_hits = 1644
L2_total_cache_reservation_fails = 0
L2_total_cache_breakdown:
	L2_cache_stats_breakdown[GLOBAL_ACC_R][HIT] = 31
	L2_cache_stats_breakdown[GLOBAL_ACC_R][HIT_RESERVED] = 1536
	L2_cache_stats_breakdown[GLOBAL_ACC_R][MISS] = 523
	L2_cache_stats_breakdown[GLOBAL_ACC_R][RESERVATION_FAIL] = 0
	L2_cache_stats_breakdown[LOCAL_ACC_R][HIT] = 0
	L2_cache_stats_breakdown[LOCAL_ACC_R][HIT_RESERVED] = 0
	L2_cache_stats_breakdown[LOCAL_ACC_R][MISS] = 0
	L2_cache_stats_breakdown[LOCAL_ACC_R][RESERVATION_FAIL] = 0
	L2_cache_stats_breakdown[CONST_ACC_R][HIT] = 0
	L2_cache_stats_breakdown[CONST_ACC_R][HIT_RESERVED] = 27
	L2_cache_stats_breakdown[CONST_ACC_R][MISS] = 1
	L2_cache_stats_breakdown[CONST_ACC_R][RESERVATION_FAIL] = 0
	L2_cache_stats_breakdown[TEXTURE_ACC_R][HIT] = 0
	L2_cache_stats_breakdown[TEXTURE_ACC_R][HIT_RESERVED] = 0
	L2_cache_stats_breakdown[TEXTURE_ACC_R][MISS] = 0
	L2_cache_stats_breakdown[TEXTURE_ACC_R][RESERVATION_FAIL] = 0
	L2_cache_stats_breakdown[GLOBAL_ACC_W][HIT] = 1
	L2_cache_stats_breakdown[GLOBAL_ACC_W][HIT_RESERVED] = 0
	L2_cache_stats_breakdown[GLOBAL_ACC_W][MISS] = 16
	L2_cache_stats_breakdown[GLOBAL_ACC_W][RESERVATION_FAIL] = 0
	L2_cache_stats_breakdown[LOCAL_ACC_W][HIT] = 0
	L2_cache_stats_breakdown[LOCAL_ACC_W][HIT_RESERVED] = 0
	L2_cache_stats_breakdown[LOCAL_ACC_W][MISS] = 0
	L2_cache_stats_breakdown[LOCAL_ACC_W][RESERVATION_FAIL] = 0
	L2_cache_stats_breakdown[L1_WRBK_ACC][HIT] = 0
	L2_cache_stats_breakdown[L1_WRBK_ACC][HIT_RESERVED] = 0
	L2_cache_stats_breakdown[L1_WRBK_ACC][MISS] = 0
	L2_cache_stats_breakdown[L1_WRBK_ACC][RESERVATION_FAIL] = 0
	L2_cache_stats_breakdown[L2_WRBK_ACC][HIT] = 0
	L2_cache_stats_breakdown[L2_WRBK_ACC][HIT_RESERVED] = 0
	L2_cache_stats_breakdown[L2_WRBK_ACC][MISS] = 0
	L2_cache_stats_breakdown[L2_WRBK_ACC][RESERVATION_FAIL] = 0
	L2_cache_stats_breakdown[INST_ACC_R][HIT] = 0
	L2_cache_stats_breakdown[INST_ACC_R][HIT_RESERVED] = 81
	L2_cache_stats_breakdown[INST_ACC_R][MISS] = 4
	L2_cache_stats_breakdown[INST_ACC_R][RESERVATION_FAIL] = 0
	L2_cache_stats_breakdown[L1_WR_ALLOC_R][HIT] = 0
	L2_cache_stats_breakdown[L1_WR_ALLOC_R][HIT_RESERVED] = 0
	L2_cache_stats_breakdown[L1_WR_ALLOC_R][MISS] = 0
	L2_cache_stats_breakdown[L1_WR_ALLOC_R][RESERVATION_FAIL] = 0
	L2_cache_stats_breakdown[L2_WR_ALLOC_R][HIT] = 0
	L2_cache_stats_breakdown[L2_WR_ALLOC_R][HIT_RESERVED] = 0
	L2_cache_stats_breakdown[L2_WR_ALLOC_R][MISS] = 0
	L2_cache_stats_breakdown[L2_WR_ALLOC_R][RESERVATION_FAIL] = 0
	L2_cache_stats_breakdown[GLOBAL_ACC_R][TOTAL_ACCESS] = 2090
	L2_cache_stats_breakdown[CONST_ACC_R][TOTAL_ACCESS] = 28
	L2_cache_stats_breakdown[GLOBAL_ACC_W][TOTAL_ACCESS] = 17
	L2_cache_stats_breakdown[INST_ACC_R][TOTAL_ACCESS] = 85
L2_cache_data_port_util = 0.000
L2_cache_fill_port_util = 0.001

icnt_total_pkts_mem_to_simt=4706
icnt_total_pkts_simt_to_mem=2237
LD_mem_lat_dist  0 0 0 0 0 0 0 0 0 0 0 0 0 0 0 0 0 0 0 0 0 0 0 0 0 0 0
ST_mem_lat_dist  0 0 0 0 0 0 0 0 0 0 0 0 0 0 0 0 0 0 0 0 0 0 0 0 0 0 0
----------------------------Interconnect-DETAILS--------------------------------
Class 0:
Packet latency average = 26.4471
	minimum = 6
	maximum = 96
Network latency average = 18.4167
	minimum = 6
	maximum = 60
Slowest packet = 27
Flit latency average = 16.2639
	minimum = 6
	maximum = 60
Slowest flit = 27
Fragmentation average = 0
	minimum = 0
	maximum = 0
Injected packet rate average = 0.000476986
	minimum = 0.00036526 (at node 0)
	maximum = 0.000773491 (at node 1)
Accepted packet rate average = 0.000476986
	minimum = 0.00036526 (at node 0)
	maximum = 0.000773491 (at node 1)
Injected flit rate average = 0.000745881
	minimum = 0.00036526 (at node 0)
	maximum = 0.0017511 (at node 36)
Accepted flit rate average= 0.000745881
	minimum = 0.000494175 (at node 41)
	maximum = 0.0015255 (at node 1)
Injected packet length average = 1.56374
Accepted packet length average = 1.56374
Total in-flight flits = 0 (0 measured)
====== Overall Traffic Statistics ======
====== Traffic class 0 ======
Packet latency average = 26.4471 (1 samples)
	minimum = 6 (1 samples)
	maximum = 96 (1 samples)
Network latency average = 18.4167 (1 samples)
	minimum = 6 (1 samples)
	maximum = 60 (1 samples)
Flit latency average = 16.2639 (1 samples)
	minimum = 6 (1 samples)
	maximum = 60 (1 samples)
Fragmentation average = 0 (1 samples)
	minimum = 0 (1 samples)
	maximum = 0 (1 samples)
Injected packet rate average = 0.000476986 (1 samples)
	minimum = 0.00036526 (1 samples)
	maximum = 0.000773491 (1 samples)
Accepted packet rate average = 0.000476986 (1 samples)
	minimum = 0.00036526 (1 samples)
	maximum = 0.000773491 (1 samples)
Injected flit rate average = 0.000745881 (1 samples)
	minimum = 0.00036526 (1 samples)
	maximum = 0.0017511 (1 samples)
Accepted flit rate average = 0.000745881 (1 samples)
	minimum = 0.000494175 (1 samples)
	maximum = 0.0015255 (1 samples)
Injected packet size average = 1.56374 (1 samples)
Accepted packet size average = 1.56374 (1 samples)
Hops average = 1 (1 samples)
----------------------------END-of-Interconnect-DETAILS-------------------------


gpgpu_simulation_time = 0 days, 0 hrs, 2 min, 38 sec (158 sec)
gpgpu_simulation_rate = 7882 (inst/sec)
gpgpu_simulation_rate = 2011 (cycle/sec)

GPGPU-Sim PTX: cudaLaunch for 0x0x401649 (mode=performance simulation) on stream 0
GPGPU-Sim PTX: pushing kernel '_Z7Kernel2PbS_S_S_i' to stream 0, gridDim= (128,1,1) blockDim = (512,1,1) 
GPGPU-Sim uArch: Shader 17 bind to kernel 2 '_Z7Kernel2PbS_S_S_i'
GPGPU-Sim uArch: CTA/core = 4, limited by: threads
GPGPU-Sim uArch: Shader 18 bind to kernel 2 '_Z7Kernel2PbS_S_S_i'
GPGPU-Sim uArch: Shader 19 bind to kernel 2 '_Z7Kernel2PbS_S_S_i'
GPGPU-Sim uArch: Shader 20 bind to kernel 2 '_Z7Kernel2PbS_S_S_i'
GPGPU-Sim uArch: Shader 21 bind to kernel 2 '_Z7Kernel2PbS_S_S_i'
GPGPU-Sim uArch: Shader 22 bind to kernel 2 '_Z7Kernel2PbS_S_S_i'
GPGPU-Sim uArch: Shader 23 bind to kernel 2 '_Z7Kernel2PbS_S_S_i'
GPGPU-Sim uArch: Shader 24 bind to kernel 2 '_Z7Kernel2PbS_S_S_i'
GPGPU-Sim uArch: Shader 25 bind to kernel 2 '_Z7Kernel2PbS_S_S_i'
GPGPU-Sim uArch: Shader 26 bind to kernel 2 '_Z7Kernel2PbS_S_S_i'
GPGPU-Sim uArch: Shader 27 bind to kernel 2 '_Z7Kernel2PbS_S_S_i'
GPGPU-Sim uArch: Shader 0 bind to kernel 2 '_Z7Kernel2PbS_S_S_i'
GPGPU-Sim uArch: Shader 1 bind to kernel 2 '_Z7Kernel2PbS_S_S_i'
GPGPU-Sim uArch: Shader 2 bind to kernel 2 '_Z7Kernel2PbS_S_S_i'
GPGPU-Sim uArch: Shader 3 bind to kernel 2 '_Z7Kernel2PbS_S_S_i'
GPGPU-Sim uArch: Shader 4 bind to kernel 2 '_Z7Kernel2PbS_S_S_i'
GPGPU-Sim uArch: Shader 5 bind to kernel 2 '_Z7Kernel2PbS_S_S_i'
GPGPU-Sim uArch: Shader 6 bind to kernel 2 '_Z7Kernel2PbS_S_S_i'
GPGPU-Sim uArch: Shader 7 bind to kernel 2 '_Z7Kernel2PbS_S_S_i'
GPGPU-Sim uArch: Shader 8 bind to kernel 2 '_Z7Kernel2PbS_S_S_i'
GPGPU-Sim uArch: Shader 9 bind to kernel 2 '_Z7Kernel2PbS_S_S_i'
GPGPU-Sim uArch: Shader 10 bind to kernel 2 '_Z7Kernel2PbS_S_S_i'
GPGPU-Sim uArch: Shader 11 bind to kernel 2 '_Z7Kernel2PbS_S_S_i'
GPGPU-Sim uArch: Shader 12 bind to kernel 2 '_Z7Kernel2PbS_S_S_i'
GPGPU-Sim uArch: Shader 13 bind to kernel 2 '_Z7Kernel2PbS_S_S_i'
GPGPU-Sim uArch: Shader 14 bind to kernel 2 '_Z7Kernel2PbS_S_S_i'
GPGPU-Sim uArch: Shader 15 bind to kernel 2 '_Z7Kernel2PbS_S_S_i'
GPGPU-Sim uArch: Shader 16 bind to kernel 2 '_Z7Kernel2PbS_S_S_i'
Destroy streams for kernel 2: size 0
kernel_name = _Z7Kernel2PbS_S_S_i 
kernel_launch_uid = 2 
gpu_sim_cycle = 1928
gpu_sim_insn = 1114192
gpu_ipc =     577.9004
gpu_tot_sim_cycle = 541849
gpu_tot_sim_insn = 2359568
gpu_tot_ipc =       4.3547
gpu_tot_issued_cta = 256
max_total_param_size = 0
gpu_stall_dramfull = 156
gpu_stall_icnt2sh    = 7150
partiton_reqs_in_parallel = 42260
partiton_reqs_in_parallel_total    = 2047870
partiton_level_parallism =      21.9191
partiton_level_parallism_total  =       3.8574
partiton_reqs_in_parallel_util = 42260
partiton_reqs_in_parallel_util_total    = 2047870
gpu_sim_cycle_parition_util = 1928
gpu_tot_sim_cycle_parition_util    = 93085
partiton_level_parallism_util =      21.9191
partiton_level_parallism_util_total  =      21.9984
partiton_replys_in_parallel = 2136
partiton_replys_in_parallel_total    = 2220
L2_BW  =     105.0097 GB/Sec
L2_BW_total  =       0.7620 GB/Sec
gpu_total_sim_rate=14214

========= Core cache stats =========
L1I_cache:
	L1I_total_cache_accesses = 43152
	L1I_total_cache_misses = 5412
	L1I_total_cache_miss_rate = 0.1254
	L1I_total_cache_pending_hits = 0
	L1I_total_cache_reservation_fails = 15158
L1D_cache:
	L1D_cache_core[0]: Access = 0, Miss = 0, Miss_rate = -nan, Pending_hits = 0, Reservation_fails = 0
	L1D_cache_core[1]: Access = 0, Miss = 0, Miss_rate = -nan, Pending_hits = 0, Reservation_fails = 0
	L1D_cache_core[2]: Access = 0, Miss = 0, Miss_rate = -nan, Pending_hits = 0, Reservation_fails = 0
	L1D_cache_core[3]: Access = 0, Miss = 0, Miss_rate = -nan, Pending_hits = 0, Reservation_fails = 0
	L1D_cache_core[4]: Access = 0, Miss = 0, Miss_rate = -nan, Pending_hits = 0, Reservation_fails = 0
	L1D_cache_core[5]: Access = 0, Miss = 0, Miss_rate = -nan, Pending_hits = 0, Reservation_fails = 0
	L1D_cache_core[6]: Access = 0, Miss = 0, Miss_rate = -nan, Pending_hits = 0, Reservation_fails = 0
	L1D_cache_core[7]: Access = 0, Miss = 0, Miss_rate = -nan, Pending_hits = 0, Reservation_fails = 0
	L1D_cache_core[8]: Access = 0, Miss = 0, Miss_rate = -nan, Pending_hits = 0, Reservation_fails = 0
	L1D_cache_core[9]: Access = 0, Miss = 0, Miss_rate = -nan, Pending_hits = 0, Reservation_fails = 0
	L1D_cache_core[10]: Access = 0, Miss = 0, Miss_rate = -nan, Pending_hits = 0, Reservation_fails = 0
	L1D_cache_core[11]: Access = 0, Miss = 0, Miss_rate = -nan, Pending_hits = 0, Reservation_fails = 0
	L1D_cache_core[12]: Access = 0, Miss = 0, Miss_rate = -nan, Pending_hits = 0, Reservation_fails = 0
	L1D_cache_core[13]: Access = 0, Miss = 0, Miss_rate = -nan, Pending_hits = 0, Reservation_fails = 0
	L1D_cache_core[14]: Access = 0, Miss = 0, Miss_rate = -nan, Pending_hits = 0, Reservation_fails = 0
	L1D_cache_core[15]: Access = 0, Miss = 0, Miss_rate = -nan, Pending_hits = 0, Reservation_fails = 0
	L1D_cache_core[16]: Access = 0, Miss = 0, Miss_rate = -nan, Pending_hits = 0, Reservation_fails = 0
	L1D_cache_core[17]: Access = 0, Miss = 0, Miss_rate = -nan, Pending_hits = 0, Reservation_fails = 0
	L1D_cache_core[18]: Access = 0, Miss = 0, Miss_rate = -nan, Pending_hits = 0, Reservation_fails = 0
	L1D_cache_core[19]: Access = 0, Miss = 0, Miss_rate = -nan, Pending_hits = 0, Reservation_fails = 0
	L1D_cache_core[20]: Access = 0, Miss = 0, Miss_rate = -nan, Pending_hits = 0, Reservation_fails = 0
	L1D_cache_core[21]: Access = 0, Miss = 0, Miss_rate = -nan, Pending_hits = 0, Reservation_fails = 0
	L1D_cache_core[22]: Access = 0, Miss = 0, Miss_rate = -nan, Pending_hits = 0, Reservation_fails = 0
	L1D_cache_core[23]: Access = 0, Miss = 0, Miss_rate = -nan, Pending_hits = 0, Reservation_fails = 0
	L1D_cache_core[24]: Access = 0, Miss = 0, Miss_rate = -nan, Pending_hits = 0, Reservation_fails = 0
	L1D_cache_core[25]: Access = 0, Miss = 0, Miss_rate = -nan, Pending_hits = 0, Reservation_fails = 0
	L1D_cache_core[26]: Access = 0, Miss = 0, Miss_rate = -nan, Pending_hits = 0, Reservation_fails = 0
	L1D_cache_core[27]: Access = 0, Miss = 0, Miss_rate = -nan, Pending_hits = 0, Reservation_fails = 0
	L1D_total_cache_accesses = 0
	L1D_total_cache_misses = 0
	L1D_total_cache_pending_hits = 0
	L1D_total_cache_reservation_fails = 0
	L1D_cache_data_port_util = 0.000
	L1D_cache_fill_port_util = 0.000
L1C_cache:
	L1C_total_cache_accesses = 24576
	L1C_total_cache_misses = 1792
	L1C_total_cache_miss_rate = 0.0729
	L1C_total_cache_pending_hits = 0
	L1C_total_cache_reservation_fails = 4886
L1T_cache:
	L1T_total_cache_accesses = 0
	L1T_total_cache_misses = 0
	L1T_total_cache_pending_hits = 0
	L1T_total_cache_reservation_fails = 0

Total_core_cache_stats:
	Total_core_cache_stats_breakdown[GLOBAL_ACC_R][HIT] = 0
	Total_core_cache_stats_breakdown[GLOBAL_ACC_R][HIT_RESERVED] = 0
	Total_core_cache_stats_breakdown[GLOBAL_ACC_R][MISS] = 0
	Total_core_cache_stats_breakdown[GLOBAL_ACC_R][RESERVATION_FAIL] = 0
	Total_core_cache_stats_breakdown[LOCAL_ACC_R][HIT] = 0
	Total_core_cache_stats_breakdown[LOCAL_ACC_R][HIT_RESERVED] = 0
	Total_core_cache_stats_breakdown[LOCAL_ACC_R][MISS] = 0
	Total_core_cache_stats_breakdown[LOCAL_ACC_R][RESERVATION_FAIL] = 0
	Total_core_cache_stats_breakdown[CONST_ACC_R][HIT] = 22784
	Total_core_cache_stats_breakdown[CONST_ACC_R][HIT_RESERVED] = 0
	Total_core_cache_stats_breakdown[CONST_ACC_R][MISS] = 1792
	Total_core_cache_stats_breakdown[CONST_ACC_R][RESERVATION_FAIL] = 4886
	Total_core_cache_stats_breakdown[TEXTURE_ACC_R][HIT] = 0
	Total_core_cache_stats_breakdown[TEXTURE_ACC_R][HIT_RESERVED] = 0
	Total_core_cache_stats_breakdown[TEXTURE_ACC_R][MISS] = 0
	Total_core_cache_stats_breakdown[TEXTURE_ACC_R][RESERVATION_FAIL] = 0
	Total_core_cache_stats_breakdown[GLOBAL_ACC_W][HIT] = 0
	Total_core_cache_stats_breakdown[GLOBAL_ACC_W][HIT_RESERVED] = 0
	Total_core_cache_stats_breakdown[GLOBAL_ACC_W][MISS] = 0
	Total_core_cache_stats_breakdown[GLOBAL_ACC_W][RESERVATION_FAIL] = 0
	Total_core_cache_stats_breakdown[LOCAL_ACC_W][HIT] = 0
	Total_core_cache_stats_breakdown[LOCAL_ACC_W][HIT_RESERVED] = 0
	Total_core_cache_stats_breakdown[LOCAL_ACC_W][MISS] = 0
	Total_core_cache_stats_breakdown[LOCAL_ACC_W][RESERVATION_FAIL] = 0
	Total_core_cache_stats_breakdown[L1_WRBK_ACC][HIT] = 0
	Total_core_cache_stats_breakdown[L1_WRBK_ACC][HIT_RESERVED] = 0
	Total_core_cache_stats_breakdown[L1_WRBK_ACC][MISS] = 0
	Total_core_cache_stats_breakdown[L1_WRBK_ACC][RESERVATION_FAIL] = 0
	Total_core_cache_stats_breakdown[L2_WRBK_ACC][HIT] = 0
	Total_core_cache_stats_breakdown[L2_WRBK_ACC][HIT_RESERVED] = 0
	Total_core_cache_stats_breakdown[L2_WRBK_ACC][MISS] = 0
	Total_core_cache_stats_breakdown[L2_WRBK_ACC][RESERVATION_FAIL] = 0
	Total_core_cache_stats_breakdown[INST_ACC_R][HIT] = 37740
	Total_core_cache_stats_breakdown[INST_ACC_R][HIT_RESERVED] = 0
	Total_core_cache_stats_breakdown[INST_ACC_R][MISS] = 5412
	Total_core_cache_stats_breakdown[INST_ACC_R][RESERVATION_FAIL] = 15158
	Total_core_cache_stats_breakdown[L1_WR_ALLOC_R][HIT] = 0
	Total_core_cache_stats_breakdown[L1_WR_ALLOC_R][HIT_RESERVED] = 0
	Total_core_cache_stats_breakdown[L1_WR_ALLOC_R][MISS] = 0
	Total_core_cache_stats_breakdown[L1_WR_ALLOC_R][RESERVATION_FAIL] = 0
	Total_core_cache_stats_breakdown[L2_WR_ALLOC_R][HIT] = 0
	Total_core_cache_stats_breakdown[L2_WR_ALLOC_R][HIT_RESERVED] = 0
	Total_core_cache_stats_breakdown[L2_WR_ALLOC_R][MISS] = 0
	Total_core_cache_stats_breakdown[L2_WR_ALLOC_R][RESERVATION_FAIL] = 0
	Total_core_cache_stats_breakdown[CONST_ACC_R][TOTAL_ACCESS] = 24576
	Total_core_cache_stats_breakdown[INST_ACC_R][TOTAL_ACCESS] = 43152
Shader 0 warp_id issue ditsribution:
warp_id:
0, 1, 2, 3, 4, 5, 6, 7, 8, 9, 10, 11, 12, 13, 14, 15, 16, 17, 18, 19, 20, 21, 22, 23, 24, 25, 26, 27, 28, 29, 30, 31, 32, 33, 34, 35, 36, 37, 38, 39, 40, 41, 42, 43, 44, 45, 46, 47, 48, 49, 50, 51, 52, 53, 54, 55, 56, 57, 58, 59, 60, 61, 62, 63, 
distro:
44, 44, 43, 44, 43, 44, 43, 44, 44, 44, 44, 44, 44, 44, 44, 44, 44, 44, 44, 44, 44, 44, 44, 44, 44, 44, 44, 44, 44, 44, 44, 44, 44, 44, 44, 44, 44, 44, 44, 44, 44, 44, 44, 44, 44, 44, 44, 44, 44, 44, 44, 44, 44, 44, 44, 44, 44, 44, 44, 44, 44, 44, 44, 44, 
gpgpu_n_tot_thrd_icount = 2499680
gpgpu_n_tot_w_icount = 78115
gpgpu_n_stall_shd_mem = 5198
gpgpu_n_mem_read_local = 0
gpgpu_n_mem_write_local = 0
gpgpu_n_mem_read_global = 4138
gpgpu_n_mem_write_global = 49
gpgpu_n_mem_texture = 0
gpgpu_n_mem_const = 28
gpgpu_n_load_insn  = 131114
gpgpu_n_store_insn = 49
gpgpu_n_shmem_insn = 0
gpgpu_n_tex_insn = 0
gpgpu_n_const_mem_insn = 0
gpgpu_n_param_mem_insn = 786432
gpgpu_n_shmem_bkconflict = 0
gpgpu_n_cache_bkconflict = 0
gpgpu_n_intrawarp_mshr_merge = 0
gpgpu_n_cmem_portconflict = 4886
gpgpu_stall_shd_mem[c_mem][bk_conf] = 4886
gpgpu_stall_shd_mem[c_mem][mshr_rc] = 0
gpgpu_stall_shd_mem[c_mem][icnt_rc] = 0
gpgpu_stall_shd_mem[c_mem][data_port_stall] = 0
gpgpu_stall_shd_mem[t_mem][mshr_rc] = 0
gpgpu_stall_shd_mem[t_mem][icnt_rc] = 0
gpgpu_stall_shd_mem[t_mem][data_port_stall] = 0
gpgpu_stall_shd_mem[s_mem][bk_conf] = 0
gpgpu_stall_shd_mem[gl_mem][bk_conf] = 0
gpgpu_stall_shd_mem[gl_mem][coal_stall] = 0
gpgpu_stall_shd_mem[gl_mem][data_port_stall] = 0
gpgpu_stall_shd_mem[g_mem_ld][mshr_rc] = 0
[...]
F:  1625873----T:  1629303 	 St: 80315000 Sz: 16384 	 Sm: 0 	 T: memcpy_h2d(2.316003)
F:  1629303----T:  1633115 	 St: 80319000 Sz: 20480 	 Sm: 0 	 T: memcpy_h2d(2.573936)
F:  1633115----T:  1637756 	 St: 8031e000 Sz: 28672 	 Sm: 0 	 T: memcpy_h2d(3.133693)
F:  1637756----T:  1646458 	 St: 80375000 Sz: 65536 	 Sm: 0 	 T: memcpy_h2d(5.875760)
F:  1646458----T:  1655160 	 St: 80285000 Sz: 65536 	 Sm: 0 	 T: memcpy_h2d(5.875760)
F:  1655160----T:  1659801 	 St: 80305000 Sz: 28672 	 Sm: 0 	 T: memcpy_h2d(3.133693)
F:  1659801----T:  1665316 	 St: 8030c000 Sz: 36864 	 Sm: 0 	 T: memcpy_h2d(3.723835)
F:  1887467----T:  1948423 	 	 	 Kl: 6 	 Sm: 0 	 T: kernel_launch(41.158676)
F:  1888062----T:  1896764 	 St: 80265000 Sz: 65536 	 Sm: 0 	 T: memcpy_h2d(5.875760)
F:  1888062----T:  1896764 	 St: 80395000 Sz: 65536 	 Sm: 0 	 T: write_back(5.875760)
F:  1896764----T:  1900983 	 St: 802c5000 Sz: 24576 	 Sm: 0 	 T: memcpy_h2d(2.848751)
F:  1896764----T:  1905466 	 St: 803a5000 Sz: 65536 	 Sm: 0 	 T: write_back(5.875760)
F:  1900983----T:  1906944 	 St: 802cb000 Sz: 40960 	 Sm: 0 	 T: memcpy_h2d(4.024983)
F:  1905466----T:  1914168 	 St: 803d5000 Sz: 65536 	 Sm: 0 	 T: write_back(5.875760)
F:  1914168----T:  1930331 	 St: 80345000 Sz: 131072 	 Sm: 0 	 T: memcpy_h2d(10.913572)
F:  1914168----T:  1922870 	 St: 803e5000 Sz: 65536 	 Sm: 0 	 T: write_back(5.875760)
F:  1922870----T:  1931572 	 St: 803f5000 Sz: 65536 	 Sm: 0 	 T: write_back(5.875760)
F:  1930331----T:  1939033 	 St: 80385000 Sz: 65536 	 Sm: 0 	 T: memcpy_h2d(5.875760)
F:  1931573----T:  1940275 	 St: 80405000 Sz: 65536 	 Sm: 0 	 T: write_back(5.875760)
F:  1939033----T:  1947735 	 St: 803b5000 Sz: 65536 	 Sm: 0 	 T: memcpy_h2d(5.875760)
F:  1948423----T:  1950958 	 St: 80000000 Sz: 1 	 Sm: 0 	 T: memcpy_d2h(1.711681)
F:  1950959----T:  1953494 	 St: 80000000 Sz: 1 	 Sm: 0 	 T: memcpy_h2d(1.711681)
F:  2175645----T:  2339596 	 	 	 Kl: 7 	 Sm: 0 	 T: kernel_launch(110.702904)
F:  2176684----T:  2184006 	 St: 80325000 Sz: 53248 	 Sm: 0 	 T: memcpy_h2d(4.943957)
F:  2176684----T:  2185386 	 St: 80415000 Sz: 65536 	 Sm: 0 	 T: write_back(5.875760)
F:  2184006----T:  2187092 	 St: 80332000 Sz: 12288 	 Sm: 0 	 T: memcpy_h2d(2.083727)
F:  2185386----T:  2194088 	 St: 80475000 Sz: 65536 	 Sm: 0 	 T: write_back(5.875760)
F:  2194088----T:  2210251 	 St: 80395000 Sz: 131072 	 Sm: 0 	 T: memcpy_h2d(10.913572)
F:  2194088----T:  2202790 	 St: 80485000 Sz: 65536 	 Sm: 0 	 T: write_back(5.875760)
F:  2202790----T:  2211492 	 St: 80495000 Sz: 65536 	 Sm: 0 	 T: write_back(5.875760)
F:  2211492----T:  2220194 	 St: 804a5000 Sz: 65536 	 Sm: 0 	 T: write_back(5.875760)
F:  2220194----T:  2228896 	 St: 804b5000 Sz: 65536 	 Sm: 0 	 T: write_back(5.875760)
F:  2228896----T:  2260089 	 St: 803d5000 Sz: 262144 	 Sm: 0 	 T: memcpy_h2d(21.062120)
F:  2228896----T:  2237598 	 St: 804c5000 Sz: 65536 	 Sm: 0 	 T: write_back(5.875760)
F:  2237598----T:  2246300 	 St: 804d5000 Sz: 65536 	 Sm: 0 	 T: write_back(5.875760)
F:  2246300----T:  2255002 	 St: 804e5000 Sz: 65536 	 Sm: 0 	 T: write_back(5.875760)
F:  2255002----T:  2263704 	 St: 80295000 Sz: 65536 	 Sm: 0 	 T: write_back(5.875760)
F:  2260089----T:  2263519 	 St: 80335000 Sz: 16384 	 Sm: 0 	 T: memcpy_h2d(2.316003)
F:  2263519----T:  2270384 	 St: 80339000 Sz: 49152 	 Sm: 0 	 T: memcpy_h2d(4.635382)
F:  2263704----T:  2272406 	 St: 802c5000 Sz: 65536 	 Sm: 0 	 T: write_back(5.875760)
F:  2270384----T:  2279086 	 St: 80415000 Sz: 65536 	 Sm: 0 	 T: memcpy_h2d(5.875760)
F:  2272406----T:  2281108 	 St: 80275000 Sz: 65536 	 Sm: 0 	 T: write_back(5.875760)
F:  2279086----T:  2285951 	 St: 80365000 Sz: 49152 	 Sm: 0 	 T: memcpy_h2d(4.635382)
F:  2281109----T:  2289811 	 St: 802a5000 Sz: 65536 	 Sm: 0 	 T: write_back(5.875760)
F:  2285951----T:  2289381 	 St: 80371000 Sz: 16384 	 Sm: 0 	 T: memcpy_h2d(2.316003)
F:  2289381----T:  2291986 	 St: 803c5000 Sz: 4096 	 Sm: 0 	 T: memcpy_h2d(1.758947)
F:  2289811----T:  2298513 	 St: 802f5000 Sz: 65536 	 Sm: 0 	 T: write_back(5.875760)
F:  2291986----T:  2300226 	 St: 803c6000 Sz: 61440 	 Sm: 0 	 T: memcpy_h2d(5.563808)
F:  2298514----T:  2307216 	 St: 80455000 Sz: 65536 	 Sm: 0 	 T: write_back(5.875760)
F:  2300226----T:  2305300 	 St: 80465000 Sz: 32768 	 Sm: 0 	 T: memcpy_h2d(3.426064)
F:  2305300----T:  2310374 	 St: 8046d000 Sz: 32768 	 Sm: 0 	 T: memcpy_h2d(3.426064)
F:  2310374----T:  2313804 	 St: 80295000 Sz: 16384 	 Sm: 0 	 T: memcpy_h2d(2.316003)
F:  2313804----T:  2320669 	 St: 80299000 Sz: 49152 	 Sm: 0 	 T: memcpy_h2d(4.635382)
F:  2320669----T:  2329371 	 St: 80275000 Sz: 65536 	 Sm: 0 	 T: memcpy_h2d(5.875760)
F:  2329371----T:  2333183 	 St: 802a5000 Sz: 20480 	 Sm: 0 	 T: memcpy_h2d(2.573936)
F:  2333183----T:  2339595 	 St: 802aa000 Sz: 45056 	 Sm: 0 	 T: memcpy_h2d(4.329507)
F:  2561746----T:  2591318 	 	 	 Kl: 8 	 Sm: 0 	 T: kernel_launch(19.967590)
F:  2562353----T:  2564958 	 St: 802c5000 Sz: 4096 	 Sm: 0 	 T: memcpy_h2d(1.758947)
F:  2562353----T:  2571055 	 St: 80255000 Sz: 65536 	 Sm: 0 	 T: write_back(5.875760)
F:  2564958----T:  2573198 	 St: 802c6000 Sz: 61440 	 Sm: 0 	 T: memcpy_h2d(5.563808)
F:  2571055----T:  2579757 	 St: 802b5000 Sz: 65536 	 Sm: 0 	 T: write_back(5.875760)
F:  2573198----T:  2581900 	 St: 802f5000 Sz: 65536 	 Sm: 0 	 T: memcpy_h2d(5.875760)
F:  2579758----T:  2588460 	 St: 80435000 Sz: 65536 	 Sm: 0 	 T: write_back(5.875760)
F:  2581900----T:  2590602 	 St: 80455000 Sz: 65536 	 Sm: 0 	 T: memcpy_h2d(5.875760)
F:  2591318----T:  2593853 	 St: 80000000 Sz: 1 	 Sm: 0 	 T: memcpy_d2h(1.711681)
F:  2593854----T:  2596389 	 St: 80000000 Sz: 1 	 Sm: 0 	 T: memcpy_h2d(1.711681)
F:  2818540----T:  2903447 	 	 	 Kl: 9 	 Sm: 0 	 T: kernel_launch(57.330856)
F:  2819143----T:  2823784 	 St: 80255000 Sz: 28672 	 Sm: 0 	 T: memcpy_h2d(3.133693)
F:  2819143----T:  2827845 	 St: 80315000 Sz: 65536 	 Sm: 0 	 T: write_back(5.875760)
F:  2823784----T:  2829299 	 St: 8025c000 Sz: 36864 	 Sm: 0 	 T: memcpy_h2d(3.723835)
F:  2827845----T:  2836547 	 St: 80345000 Sz: 65536 	 Sm: 0 	 T: write_back(5.875760)
F:  2829299----T:  2838001 	 St: 802b5000 Sz: 65536 	 Sm: 0 	 T: memcpy_h2d(5.875760)
F:  2836547----T:  2845249 	 St: 80465000 Sz: 65536 	 Sm: 0 	 T: write_back(5.875760)
F:  2838001----T:  2846703 	 St: 80435000 Sz: 65536 	 Sm: 0 	 T: memcpy_h2d(5.875760)
F:  2845249----T:  2853951 	 St: 80455000 Sz: 65536 	 Sm: 0 	 T: write_back(5.875760)
F:  2846703----T:  2851777 	 St: 80315000 Sz: 32768 	 Sm: 0 	 T: memcpy_h2d(3.426064)
F:  2851777----T:  2856851 	 St: 8031d000 Sz: 32768 	 Sm: 0 	 T: memcpy_h2d(3.426064)
F:  2853952----T:  2862654 	 St: 80335000 Sz: 65536 	 Sm: 0 	 T: write_back(5.875760)
F:  2856851----T:  2864173 	 St: 80345000 Sz: 53248 	 Sm: 0 	 T: memcpy_h2d(4.943957)
F:  2864173----T:  2867259 	 St: 80352000 Sz: 12288 	 Sm: 0 	 T: memcpy_h2d(2.083727)
F:  2868205----T:  2876907 	 St: 80335000 Sz: 65536 	 Sm: 0 	 T: memcpy_h2d(5.875760)
F:  2868205----T:  2876907 	 St: 802c5000 Sz: 65536 	 Sm: 0 	 T: write_back(5.875760)
F:  2876907----T:  2886999 	 St: 80455000 Sz: 77824 	 Sm: 0 	 T: memcpy_h2d(6.814315)
F:  2876907----T:  2885609 	 St: 803d5000 Sz: 65536 	 Sm: 0 	 T: write_back(5.875760)
F:  2885610----T:  2894312 	 St: 80415000 Sz: 65536 	 Sm: 0 	 T: write_back(5.875760)
F:  2886999----T:  2894321 	 St: 80468000 Sz: 53248 	 Sm: 0 	 T: memcpy_h2d(4.943957)
F:  3125597----T:  3154677 	 	 	 Kl: 10 	 Sm: 0 	 T: kernel_launch(19.635382)
F:  3126208----T:  3130020 	 St: 802c5000 Sz: 20480 	 Sm: 0 	 T: memcpy_h2d(2.573936)
F:  3126208----T:  3134910 	 St: 80385000 Sz: 65536 	 Sm: 0 	 T: write_back(5.875760)
F:  3130020----T:  3136432 	 St: 802ca000 Sz: 45056 	 Sm: 0 	 T: memcpy_h2d(4.329507)
F:  3134910----T:  3143612 	 St: 802f5000 Sz: 65536 	 Sm: 0 	 T: write_back(5.875760)
F:  3136432----T:  3145134 	 St: 803d5000 Sz: 65536 	 Sm: 0 	 T: memcpy_h2d(5.875760)
F:  3143613----T:  3152315 	 St: 80375000 Sz: 65536 	 Sm: 0 	 T: write_back(5.875760)
F:  3145134----T:  3153836 	 St: 80415000 Sz: 65536 	 Sm: 0 	 T: memcpy_h2d(5.875760)
F:  3154677----T:  3157212 	 St: 80000000 Sz: 1 	 Sm: 0 	 T: memcpy_d2h(1.711681)
F:  3157213----T:  3159748 	 St: 80000000 Sz: 1 	 Sm: 0 	 T: memcpy_h2d(1.711681)
F:  3381899----T:  3479499 	 	 	 Kl: 11 	 Sm: 0 	 T: kernel_launch(65.901421)
F:  3383175----T:  3385975 	 St: 802f5000 Sz: 8192 	 Sm: 0 	 T: memcpy_h2d(1.890614)
F:  3383175----T:  3391877 	 St: 803e5000 Sz: 65536 	 Sm: 0 	 T: write_back(5.875760)
F:  3385975----T:  3393755 	 St: 802f7000 Sz: 57344 	 Sm: 0 	 T: memcpy_h2d(5.253207)
F:  3391877----T:  3400579 	 St: 802b5000 Sz: 65536 	 Sm: 0 	 T: write_back(5.875760)
F:  3400579----T:  3416742 	 St: 80375000 Sz: 131072 	 Sm: 0 	 T: memcpy_h2d(10.913572)
F:  3400579----T:  3409281 	 St: 80455000 Sz: 65536 	 Sm: 0 	 T: write_back(5.875760)
F:  3409282----T:  3417984 	 St: 80465000 Sz: 65536 	 Sm: 0 	 T: write_back(5.875760)
F:  3416742----T:  3420172 	 St: 803e5000 Sz: 16384 	 Sm: 0 	 T: memcpy_h2d(2.316003)
F:  3420172----T:  3427037 	 St: 803e9000 Sz: 49152 	 Sm: 0 	 T: memcpy_h2d(4.635382)
F:  3427504----T:  3430934 	 St: 802b5000 Sz: 16384 	 Sm: 0 	 T: memcpy_h2d(2.316003)
F:  3427504----T:  3436206 	 St: 80295000 Sz: 65536 	 Sm: 0 	 T: write_back(5.875760)
F:  3430934----T:  3434746 	 St: 802b9000 Sz: 20480 	 Sm: 0 	 T: memcpy_h2d(2.573936)
F:  3434746----T:  3438558 	 St: 802be000 Sz: 20480 	 Sm: 0 	 T: memcpy_h2d(2.573936)
F:  3436206----T:  3444908 	 St: 80335000 Sz: 65536 	 Sm: 0 	 T: write_back(5.875760)
F:  3438558----T:  3441358 	 St: 802c3000 Sz: 8192 	 Sm: 0 	 T: memcpy_h2d(1.890614)
F:  3444908----T:  3461071 	 St: 80455000 Sz: 131072 	 Sm: 0 	 T: memcpy_h2d(10.913572)
F:  3444908----T:  3453610 	 St: 802c5000 Sz: 65536 	 Sm: 0 	 T: write_back(5.875760)
F:  3453611----T:  3462313 	 St: 80325000 Sz: 65536 	 Sm: 0 	 T: write_back(5.875760)
F:  3461071----T:  3464501 	 St: 80295000 Sz: 16384 	 Sm: 0 	 T: memcpy_h2d(2.316003)
F:  3464501----T:  3471366 	 St: 80299000 Sz: 49152 	 Sm: 0 	 T: memcpy_h2d(4.635382)
F:  3701649----T:  3722399 	 	 	 Kl: 12 	 Sm: 0 	 T: kernel_launch(14.010803)
F:  3702269----T:  3705069 	 St: 802c5000 Sz: 8192 	 Sm: 0 	 T: memcpy_h2d(1.890614)
F:  3702269----T:  3710971 	 St: 80305000 Sz: 65536 	 Sm: 0 	 T: write_back(5.875760)
F:  3705069----T:  3712849 	 St: 802c7000 Sz: 57344 	 Sm: 0 	 T: memcpy_h2d(5.253207)
F:  3710972----T:  3719674 	 St: 80255000 Sz: 65536 	 Sm: 0 	 T: write_back(5.875760)
F:  3712849----T:  3721551 	 St: 80325000 Sz: 65536 	 Sm: 0 	 T: memcpy_h2d(5.875760)
F:  3722399----T:  3724934 	 St: 80000000 Sz: 1 	 Sm: 0 	 T: memcpy_d2h(1.711681)
F:  3724935----T:  3727470 	 St: 80000000 Sz: 1 	 Sm: 0 	 T: memcpy_h2d(1.711681)
F:  3949621----T:  4053905 	 	 	 Kl: 13 	 Sm: 0 	 T: kernel_launch(70.414581)
F:  3950224----T:  3955739 	 St: 80255000 Sz: 36864 	 Sm: 0 	 T: memcpy_h2d(3.723835)
F:  3950224----T:  3958926 	 St: 80315000 Sz: 65536 	 Sm: 0 	 T: write_back(5.875760)
F:  3955739----T:  3960380 	 St: 8025e000 Sz: 28672 	 Sm: 0 	 T: memcpy_h2d(3.133693)
F:  3958926----T:  3967628 	 St: 802b5000 Sz: 65536 	 Sm: 0 	 T: write_back(5.875760)
F:  3960380----T:  3969082 	 St: 80305000 Sz: 65536 	 Sm: 0 	 T: memcpy_h2d(5.875760)
F:  3967629----T:  3976331 	 St: 80465000 Sz: 65536 	 Sm: 0 	 T: write_back(5.875760)
F:  3969082----T:  3975494 	 St: 80315000 Sz: 45056 	 Sm: 0 	 T: memcpy_h2d(4.329507)
F:  3975494----T:  3979306 	 St: 80320000 Sz: 20480 	 Sm: 0 	 T: memcpy_h2d(2.573936)
F:  3984477----T:  3988696 	 St: 802b5000 Sz: 24576 	 Sm: 0 	 T: memcpy_h2d(2.848751)
F:  3984477----T:  3993179 	 St: 80455000 Sz: 65536 	 Sm: 0 	 T: write_back(5.875760)
F:  3988696----T:  3994657 	 St: 802bb000 Sz: 40960 	 Sm: 0 	 T: memcpy_h2d(4.024983)
F:  3993179----T:  4001881 	 St: 802f5000 Sz: 65536 	 Sm: 0 	 T: write_back(5.875760)
F:  3994657----T:  4003359 	 St: 80465000 Sz: 65536 	 Sm: 0 	 T: memcpy_h2d(5.875760)
F:  4001881----T:  4010583 	 St: 80365000 Sz: 65536 	 Sm: 0 	 T: write_back(5.875760)
F:  4003359----T:  4005964 	 St: 80335000 Sz: 4096 	 Sm: 0 	 T: memcpy_h2d(1.758947)
F:  4005964----T:  4014204 	 St: 80336000 Sz: 61440 	 Sm: 0 	 T: memcpy_h2d(5.563808)
F:  4010583----T:  4019285 	 St: 80385000 Sz: 65536 	 Sm: 0 	 T: write_back(5.875760)
F:  4014204----T:  4022906 	 St: 80455000 Sz: 65536 	 Sm: 0 	 T: memcpy_h2d(5.875760)
F:  4019286----T:  4027988 	 St: 802c5000 Sz: 65536 	 Sm: 0 	 T: write_back(5.875760)
F:  4022906----T:  4031608 	 St: 802f5000 Sz: 65536 	 Sm: 0 	 T: memcpy_h2d(5.875760)
F:  4031800----T:  4040502 	 St: 802c5000 Sz: 65536 	 Sm: 0 	 T: memcpy_h2d(5.875760)
F:  4031800----T:  4040502 	 St: 80275000 Sz: 65536 	 Sm: 0 	 T: write_back(5.875760)
F:  4040503----T:  4049205 	 St: 80385000 Sz: 65536 	 Sm: 0 	 T: memcpy_h2d(5.875760)
F:  4040503----T:  4049205 	 St: 80265000 Sz: 65536 	 Sm: 0 	 T: write_back(5.875760)
F:  4276055----T:  4280471 	 	 	 Kl: 14 	 Sm: 0 	 T: kernel_launch(2.981769)
F:  4280471----T:  4283006 	 St: 80000000 Sz: 1 	 Sm: 0 	 T: memcpy_d2h(1.711681)
F:  4283007----T:  4285542 	 St: 80000000 Sz: 1 	 Sm: 0 	 T: memcpy_h2d(1.711681)
F:  4507693----T:  4617564 	 	 	 Kl: 15 	 Sm: 0 	 T: kernel_launch(74.187035)
F:  4508251----T:  4511051 	 St: 80265000 Sz: 8192 	 Sm: 0 	 T: memcpy_h2d(1.890614)
F:  4508251----T:  4516953 	 St: 803b5000 Sz: 65536 	 Sm: 0 	 T: write_back(5.875760)
F:  4516953----T:  4532179 	 St: 80267000 Sz: 122880 	 Sm: 0 	 T: memcpy_h2d(10.280891)
F:  4516953----T:  4525655 	 St: 803a5000 Sz: 65536 	 Sm: 0 	 T: write_back(5.875760)
F:  4525656----T:  4534358 	 St: 80355000 Sz: 65536 	 Sm: 0 	 T: write_back(5.875760)
F:  4532179----T:  4536820 	 St: 803b5000 Sz: 28672 	 Sm: 0 	 T: memcpy_h2d(3.133693)
F:  4534358----T:  4543060 	 St: 80445000 Sz: 65536 	 Sm: 0 	 T: write_back(5.875760)
F:  4536820----T:  4542335 	 St: 803bc000 Sz: 36864 	 Sm: 0 	 T: memcpy_h2d(3.723835)
F:  4542335----T:  4544940 	 St: 80355000 Sz: 4096 	 Sm: 0 	 T: memcpy_h2d(1.758947)
F:  4543060----T:  4551762 	 St: 802b5000 Sz: 65536 	 Sm: 0 	 T: write_back(5.875760)
F:  4544940----T:  4548370 	 St: 80356000 Sz: 16384 	 Sm: 0 	 T: memcpy_h2d(2.316003)
F:  4548370----T:  4554782 	 St: 8035a000 Sz: 45056 	 Sm: 0 	 T: memcpy_h2d(4.329507)
F:  4551763----T:  4560465 	 St: 80465000 Sz: 65536 	 Sm: 0 	 T: write_back(5.875760)
F:  4554782----T:  4563484 	 St: 803a5000 Sz: 65536 	 Sm: 0 	 T: memcpy_h2d(5.875760)
F:  4563484----T:  4568558 	 St: 80365000 Sz: 32768 	 Sm: 0 	 T: memcpy_h2d(3.426064)
F:  4568558----T:  4573632 	 St: 8036d000 Sz: 32768 	 Sm: 0 	 T: memcpy_h2d(3.426064)
F:  4574001----T:  4578220 	 St: 802b5000 Sz: 24576 	 Sm: 0 	 T: memcpy_h2d(2.848751)
F:  4574001----T:  4582703 	 St: 80455000 Sz: 65536 	 Sm: 0 	 T: write_back(5.875760)
F:  4578220----T:  4584181 	 St: 802bb000 Sz: 40960 	 Sm: 0 	 T: memcpy_h2d(4.024983)
F:  4582703----T:  4591405 	 St: 80255000 Sz: 65536 	 Sm: 0 	 T: write_back(5.875760)
F:  4584181----T:  4592883 	 St: 80445000 Sz: 65536 	 Sm: 0 	 T: memcpy_h2d(5.875760)
F:  4591405----T:  4600107 	 St: 802c5000 Sz: 65536 	 Sm: 0 	 T: write_back(5.875760)
F:  4592883----T:  4601585 	 St: 80465000 Sz: 65536 	 Sm: 0 	 T: memcpy_h2d(5.875760)
F:  4600108----T:  4608810 	 St: 80245000 Sz: 65536 	 Sm: 0 	 T: write_back(5.875760)
F:  4601585----T:  4604385 	 St: 80455000 Sz: 8192 	 Sm: 0 	 T: memcpy_h2d(1.890614)
F:  4604385----T:  4612165 	 St: 80457000 Sz: 57344 	 Sm: 0 	 T: memcpy_h2d(5.253207)
F:  4839714----T:  4861983 	 	 	 Kl: 16 	 Sm: 0 	 T: kernel_launch(15.036462)
F:  4840329----T:  4849031 	 St: 80245000 Sz: 65536 	 Sm: 0 	 T: memcpy_h2d(5.875760)
F:  4840329----T:  4849031 	 St: 80305000 Sz: 65536 	 Sm: 0 	 T: write_back(5.875760)
F:  4849032----T:  4853251 	 St: 802c5000 Sz: 24576 	 Sm: 0 	 T: memcpy_h2d(2.848751)
F:  4849032----T:  4857734 	 St: 80335000 Sz: 65536 	 Sm: 0 	 T: write_back(5.875760)
F:  4853251----T:  4855856 	 St: 802cb000 Sz: 4096 	 Sm: 0 	 T: memcpy_h2d(1.758947)
F:  4855856----T:  4861371 	 St: 802cc000 Sz: 36864 	 Sm: 0 	 T: memcpy_h2d(3.723835)
F:  4861983----T:  4864518 	 St: 80000000 Sz: 1 	 Sm: 0 	 T: memcpy_d2h(1.711681)
F:  4864519----T:  4867054 	 St: 80000000 Sz: 1 	 Sm: 0 	 T: memcpy_h2d(1.711681)
F:  5089205----T:  5160198 	 	 	 Kl: 17 	 Sm: 0 	 T: kernel_launch(47.935856)
F:  5089803----T:  5096215 	 St: 80255000 Sz: 45056 	 Sm: 0 	 T: memcpy_h2d(4.329507)
F:  5089803----T:  5098505 	 St: 802f5000 Sz: 65536 	 Sm: 0 	 T: write_back(5.875760)
F:  5096215----T:  5100027 	 St: 80260000 Sz: 20480 	 Sm: 0 	 T: memcpy_h2d(2.573936)
F:  5098505----T:  5107207 	 St: 804f5000 Sz: 65536 	 Sm: 0 	 T: write_back(5.875760)
F:  5100027----T:  5108729 	 St: 80305000 Sz: 65536 	 Sm: 0 	 T: memcpy_h2d(5.875760)
F:  5107207----T:  5115909 	 St: 802b5000 Sz: 65536 	 Sm: 0 	 T: write_back(5.875760)
F:  5108729----T:  5117431 	 St: 80335000 Sz: 65536 	 Sm: 0 	 T: memcpy_h2d(5.875760)
F:  5115910----T:  5124612 	 St: 80515000 Sz: 65536 	 Sm: 0 	 T: write_back(5.875760)
F:  5117431----T:  5120036 	 St: 802f5000 Sz: 4096 	 Sm: 0 	 T: memcpy_h2d(1.758947)
F:  5120036----T:  5128276 	 St: 802f6000 Sz: 61440 	 Sm: 0 	 T: memcpy_h2d(5.563808)
F:  5128742----T:  5131347 	 St: 802b5000 Sz: 4096 	 Sm: 0 	 T: memcpy_h2d(1.758947)
F:  5128742----T:  5137444 	 St: 80505000 Sz: 65536 	 Sm: 0 	 T: write_back(5.875760)
F:  5131347----T:  5139587 	 St: 802b6000 Sz: 61440 	 Sm: 0 	 T: memcpy_h2d(5.563808)
F:  5137444----T:  5146146 	 St: 80525000 Sz: 65536 	 Sm: 0 	 T: write_back(5.875760)
F:  5141081----T:  5149783 	 St: 80525000 Sz: 65536 	 Sm: 0 	 T: memcpy_h2d(5.875760)
F:  5150041----T:  5154682 	 St: 804f5000 Sz: 28672 	 Sm: 0 	 T: memcpy_h2d(3.133693)
F:  5150041----T:  5158743 	 St: 80445000 Sz: 65536 	 Sm: 0 	 T: write_back(5.875760)
F:  5154682----T:  5160197 	 St: 804fc000 Sz: 36864 	 Sm: 0 	 T: memcpy_h2d(3.723835)
F:  5382348----T:  5383439 	 	 	 Kl: 18 	 Sm: 0 	 T: kernel_launch(0.736664)
F:  5383439----T:  5385974 	 St: 80000000 Sz: 1 	 Sm: 0 	 T: memcpy_d2h(1.711681)
F:  5385975----T:  5388510 	 St: 80000000 Sz: 1 	 Sm: 0 	 T: memcpy_h2d(1.711681)
F:  5610661----T:  5622456 	 	 	 Kl: 19 	 Sm: 0 	 T: kernel_launch(7.964213)
F:  5612231----T:  5616043 	 St: 80445000 Sz: 20480 	 Sm: 0 	 T: memcpy_h2d(2.573936)
F:  5612231----T:  5620933 	 St: 80465000 Sz: 65536 	 Sm: 0 	 T: write_back(5.875760)
F:  5616043----T:  5622455 	 St: 8044a000 Sz: 45056 	 Sm: 0 	 T: memcpy_h2d(4.329507)
F:  5844606----T:  5845577 	 	 	 Kl: 20 	 Sm: 0 	 T: kernel_launch(0.655638)
F:  5845577----T:  5848112 	 St: 80000000 Sz: 1 	 Sm: 0 	 T: memcpy_d2h(1.711681)
F:  5848113----T:  5850718 	 St: 0 Sz: 4096 	 Sm: 0 	 T: device_sync(1.758947)
F:  5848113----T:  5856353 	 St: 0 Sz: 61440 	 Sm: 0 	 T: device_sync(5.563808)
F:  5858958----T:  5861563 	 St: 0 Sz: 4096 	 Sm: 0 	 T: device_sync(1.758947)
F:  5858958----T:  5867198 	 St: 0 Sz: 61440 	 Sm: 0 	 T: device_sync(5.563808)
F:  5869803----T:  5872408 	 St: 0 Sz: 4096 	 Sm: 0 	 T: device_sync(1.758947)
F:  5869803----T:  5885498 	 St: 0 Sz: 126976 	 Sm: 0 	 T: device_sync(10.597569)
F:  5888103----T:  5890708 	 St: 0 Sz: 4096 	 Sm: 0 	 T: device_sync(1.758947)
F:  5888103----T:  5918826 	 St: 0 Sz: 258048 	 Sm: 0 	 T: device_sync(20.744766)
F:  5921431----T:  5924036 	 St: 0 Sz: 4096 	 Sm: 0 	 T: device_sync(1.758947)
F:  5921431----T:  5982267 	 St: 0 Sz: 520192 	 Sm: 0 	 T: device_sync(41.077652)
F:  5984872----T:  5987477 	 St: 0 Sz: 4096 	 Sm: 0 	 T: device_sync(1.758947)
F:  5984872----T:  6009014 	 St: 0 Sz: 200704 	 Sm: 0 	 T: device_sync(16.301147)
Tot_prefetch_time: 0(cycle), 0.000000(us)
Tot_kernel_exec_time: 1354393(cycle), 914.512512(us)
Tot_kernel_exec_time_and_fault_time: 5886253(cycle), 3974.512451(us)
Tot_memcpy_h2d_time: 1266809(cycle), 855.374084(us)
Tot_memcpy_d2h_time: 25350(cycle), 17.116814(us)
Tot_memcpy_time: 1292159(cycle), 872.490906(us)
Tot_devicesync_time: 163506(cycle), 110.402428(us)
Tot_writeback_time: 860257(cycle), 580.862244(us)
Tot_rdma_time: 0(cycle), 0.000000(us)
Tot_memcpy_d2h_sync_wb_time: 1049113(cycle), 708.381470(us)
GPGPU-Sim: *** exit detected ***
