

        *** GPGPU-Sim Simulator Version 3.2.2  [build gpgpu-sim_git-commit-b59af3f95cf1bd6710f57ba8441bced1b556b409_modified_44] ***


GPGPU-Sim PTX: simulation mode 0 (can change with PTX_SIM_MODE_FUNC environment variable:
               1=functional simulation only, 0=detailed performance simulator)
GPGPU-Sim: Configuration options:

-network_mode                           1 # Interconnection network mode
-inter_config_file   config_fermi_islip.icnt # Interconnection network config file
-gpgpu_ptx_use_cuobjdump                    1 # Use cuobjdump to extract ptx and sass from binaries
-gpgpu_experimental_lib_support                    0 # Try to extract code from cuda libraries [Broken because of unknown cudaGetExportTable]
-gpgpu_ptx_convert_to_ptxplus                    0 # Convert SASS (native ISA) to ptxplus and run ptxplus
-gpgpu_ptx_force_max_capability                   20 # Force maximum compute capability
-gpgpu_ptx_inst_debug_to_file                    0 # Dump executed instructions' debug information to file
-gpgpu_ptx_inst_debug_file       inst_debug.txt # Executed instructions' debug output file
-gpgpu_ptx_inst_debug_thread_uid                    1 # Thread UID for executed instructions' debug output
-gpgpu_simd_model                       1 # 1 = post-dominator
-gpgpu_shader_core_pipeline              2048:32 # shader core pipeline config, i.e., {<nthread>:<warpsize>}
-gpgpu_tex_cache:l1  16:128:24,L:R:m:N:L,F:128:4,128:2 # per-shader L1 texture cache  (READ-ONLY) config  {<nsets>:<bsize>:<assoc>,<rep>:<wr>:<alloc>:<wr_alloc>,<mshr>:<N>:<merge>,<mq>:<rf>}
-gpgpu_const_cache:l1 128:64:2,L:R:f:N:L,A:2:64,4 # per-shader L1 constant memory cache  (READ-ONLY) config  {<nsets>:<bsize>:<assoc>,<rep>:<wr>:<alloc>:<wr_alloc>,<mshr>:<N>:<merge>,<mq>} 
-gpgpu_cache:il1     8:128:4,L:R:f:N:L,A:2:48,4 # shader L1 instruction cache config  {<nsets>:<bsize>:<assoc>,<rep>:<wr>:<alloc>:<wr_alloc>,<mshr>:<N>:<merge>,<mq>} 
-gpgpu_cache:dl1     64:128:6,L:L:m:N:H,A:128:8,8 # per-shader L1 data cache config  {<nsets>:<bsize>:<assoc>,<rep>:<wr>:<alloc>:<wr_alloc>,<mshr>:<N>:<merge>,<mq> | none}
-gpgpu_cache:dl1PrefL1                 none # per-shader L1 data cache config  {<nsets>:<bsize>:<assoc>,<rep>:<wr>:<alloc>:<wr_alloc>,<mshr>:<N>:<merge>,<mq> | none}
-gpgpu_cache:dl1PrefShared                 none # per-shader L1 data cache config  {<nsets>:<bsize>:<assoc>,<rep>:<wr>:<alloc>:<wr_alloc>,<mshr>:<N>:<merge>,<mq> | none}
-gmem_skip_L1D                          1 # global memory access skip L1D cache (implements -Xptxas -dlcm=cg, default=no skip)
-gpgpu_perfect_mem                      0 # enable perfect memory mode (no cache miss)
-n_regfile_gating_group                    4 # group of lanes that should be read/written together)
-gpgpu_clock_gated_reg_file                    0 # enable clock gated reg file for power calculations
-gpgpu_clock_gated_lanes                    0 # enable clock gated lanes for power calculations
-gpgpu_shader_registers                65536 # Number of registers per shader core. Limits number of concurrent CTAs. (default 8192)
-gpgpu_shader_cta                      32 # Maximum number of concurrent CTAs in shader (default 8)
-gpgpu_num_cta_barriers                   16 # Maximum number of named barriers per CTA (default 16)
-gpgpu_n_clusters                      28 # number of processing clusters
-gpgpu_n_cores_per_cluster                    1 # number of simd cores per cluster
-gpgpu_n_cluster_ejection_buffer_size                    8 # number of packets in ejection buffer
-gpgpu_n_ldst_response_buffer_size                    2 # number of response packets in ld/st unit ejection buffer
-gpgpu_shmem_size                   16384 # Size of shared memory per shader core (default 16kB)
-gpgpu_shmem_size                   98304 # Size of shared memory per shader core (default 16kB)
-gpgpu_shmem_size_PrefL1                16384 # Size of shared memory per shader core (default 16kB)
-gpgpu_shmem_size_PrefShared                16384 # Size of shared memory per shader core (default 16kB)
-gpgpu_shmem_num_banks                   32 # Number of banks in the shared memory in each shader core (default 16)
-gpgpu_shmem_limited_broadcast                    0 # Limit shared memory to do one broadcast per cycle (default on)
-gpgpu_shmem_warp_parts                    1 # Number of portions a warp is divided into for shared memory bank conflict check 
-gpgpu_warpdistro_shader                   -1 # Specify which shader core to collect the warp size distribution from
-gpgpu_warp_issue_shader                    0 # Specify which shader core to collect the warp issue distribution from
-gpgpu_local_mem_map                    1 # Mapping from local memory space address to simulated GPU physical address space (default = enabled)
-gpgpu_num_reg_banks                   32 # Number of register banks (default = 8)
-gpgpu_reg_bank_use_warp_id                    0 # Use warp ID in mapping registers to banks (default = off)
-gpgpu_operand_collector_num_units_sp                   20 # number of collector units (default = 4)
-gpgpu_operand_collector_num_units_sfu                    4 # number of collector units (default = 4)
-gpgpu_operand_collector_num_units_mem                    8 # number of collector units (default = 2)
-gpgpu_operand_collector_num_units_gen                    0 # number of collector units (default = 0)
-gpgpu_operand_collector_num_in_ports_sp                    4 # number of collector unit in ports (default = 1)
-gpgpu_operand_collector_num_in_ports_sfu                    1 # number of collector unit in ports (default = 1)
-gpgpu_operand_collector_num_in_ports_mem                    1 # number of collector unit in ports (default = 1)
-gpgpu_operand_collector_num_in_ports_gen                    0 # number of collector unit in ports (default = 0)
-gpgpu_operand_collector_num_out_ports_sp                    4 # number of collector unit in ports (default = 1)
-gpgpu_operand_collector_num_out_ports_sfu                    1 # number of collector unit in ports (default = 1)
-gpgpu_operand_collector_num_out_ports_mem                    1 # number of collector unit in ports (default = 1)
-gpgpu_operand_collector_num_out_ports_gen                    0 # number of collector unit in ports (default = 0)
-gpgpu_coalesce_arch                   13 # Coalescing arch (default = 13, anything else is off for now)
-gpgpu_num_sched_per_core                    2 # Number of warp schedulers per core
-gpgpu_max_insn_issue_per_warp                    2 # Max number of instructions that can be issued per warp in one cycle by scheduler
-gpgpu_simt_core_sim_order                    1 # Select the simulation order of cores in a cluster (0=Fix, 1=Round-Robin)
-gpgpu_pipeline_widths        4,1,1,4,1,1,6 # Pipeline widths ID_OC_SP,ID_OC_SFU,ID_OC_MEM,OC_EX_SP,OC_EX_SFU,OC_EX_MEM,EX_WB
-gpgpu_num_sp_units                     4 # Number of SP units (default=1)
-gpgpu_num_sfu_units                    1 # Number of SF units (default=1)
-gpgpu_num_mem_units                    1 # Number if ldst units (default=1) WARNING: not hooked up to anything
-gpgpu_scheduler                      gto # Scheduler configuration: < lrr | gto | two_level_active > If two_level_active:<num_active_warps>:<inner_prioritization>:<outer_prioritization>For complete list of prioritization values see shader.h enum scheduler_prioritization_typeDefault: gto
-gpgpu_concurrent_kernel_sm                    0 # Support concurrent kernels on a SM (default = disabled)
-tlb_size                            4096 # Number of tlb entries per SM.
-gpgpu_dram_scheduler                    1 # 0 = fifo, 1 = FR-FCFS (defaul)
-gpgpu_dram_partition_queues              8:8:8:8 # i2$:$2d:d2$:$2i
-l2_ideal                               0 # Use a ideal L2 cache that always hit
-gpgpu_cache:dl2     64:128:16,L:B:m:W:L,A:1024:1024,4:0,32 # unified banked L2 data cache config  {<nsets>:<bsize>:<assoc>,<rep>:<wr>:<alloc>:<wr_alloc>,<mshr>:<N>:<merge>,<mq>}
-gpgpu_cache:dl2_texture_only                    0 # L2 cache used for texture only
-gpgpu_n_mem                           11 # number of memory modules (e.g. memory controllers) in gpu
-gpgpu_n_sub_partition_per_mchannel                    2 # number of memory subpartition in each memory module
-gpgpu_n_mem_per_ctrlr                    1 # number of memory chips per memory controller
-gpgpu_memlatency_stat                   14 # track and display latency statistics 0x2 enables MC, 0x4 enables queue logs
-gpgpu_frfcfs_dram_sched_queue_size                   64 # 0 = unlimited (default); # entries per chip
-gpgpu_dram_return_queue_size                  116 # 0 = unlimited (default); # entries per chip
-gpgpu_dram_buswidth                    4 # default = 4 bytes (8 bytes per cycle at DDR)
-gpgpu_dram_burst_length                    8 # Burst length of each DRAM request (default = 4 data bus cycle)
-dram_data_command_freq_ratio                    4 # Frequency ratio between DRAM data bus and command bus (default = 2 times, i.e. DDR)
-gpgpu_dram_timing_opt nbk=16:CCD=2:RRD=6:RCD=12:RAS=28:RP=12:RC=40: CL=12:WL=4:CDLR=5:WR=12:nbkgrp=1:CCDL=0:RTPL=0 # DRAM timing parameters = {nbk:tCCD:tRRD:tRCD:tRAS:tRP:tRC:CL:WL:tCDLR:tWR:nbkgrp:tCCDL:tRTPL}
-rop_latency                          120 # ROP queue latency (default 85)
-dram_latency                         100 # DRAM latency (default 30)
-gpgpu_mem_addr_mapping dramid@8;00000000.00000000.00000000.00000000.0000RRRR.RRRRRRRR.RBBBCCCC.BCCSSSSS # mapping memory address to dram model {dramid@<start bit>;<memory address map>}
-gpgpu_mem_addr_test                    0 # run sweep test to check address mapping for aliased address
-gpgpu_mem_address_mask                    1 # 0 = old addressing mask, 1 = new addressing mask, 2 = new add. mask + flipped bank sel and chip sel bits
-gpuwattch_xml_file  gpuwattch_geforcegtx1080ti.xml # GPUWattch XML file
-power_simulation_enabled                    1 # Turn on power simulator (1=On, 0=Off)
-power_per_cycle_dump                    0 # Dump detailed power output each cycle
-power_trace_enabled                    0 # produce a file for the power trace (1=On, 0=Off)
-power_trace_zlevel                     6 # Compression level of the power trace output log (0=no comp, 9=highest)
-steady_power_levels_enabled                    0 # produce a file for the steady power levels (1=On, 0=Off)
-steady_state_definition                  8:4 # allowed deviation:number of samples
-gpgpu_max_cycle                        0 # terminates gpu simulation early (0 = no limit)
-gpgpu_max_insn                         0 # terminates gpu simulation early (0 = no limit)
-gpgpu_max_cta                          0 # terminates gpu simulation early (0 = no limit)
-gpgpu_runtime_stat                   500 # display runtime statistics such as dram utilization {<freq>:<flag>}
-liveness_message_freq                    1 # Minimum number of seconds between simulation liveness messages (0 = always print)
-gpgpu_flush_l1_cache                    0 # Flush L1 cache at the end of each kernel call
-gpgpu_flush_l2_cache                    0 # Flush L2 cache at the end of each kernel call
-gpgpu_deadlock_detect                    0 # Stop the simulation at deadlock (1=on (default), 0=off)
-gpgpu_ptx_instruction_classification                    0 # if enabled will classify ptx instruction types per kernel (Max 255 kernels now)
-gpgpu_ptx_sim_mode                     0 # Select between Performance (default) or Functional simulation (1)
-gpgpu_clock_domains 1481.0:2962.0:1481.0:2750.0 # Clock Domain Frequencies in MhZ {<Core Clock>:<ICNT Clock>:<L2 Clock>:<DRAM Clock>}
-gpgpu_max_concurrent_kernel                    8 # maximum kernels that can run concurrently on GPU
-gpgpu_cflog_interval                    0 # Interval between each snapshot in control flow logger
-visualizer_enabled                     0 # Turn on visualizer output (1=On, 0=Off)
-visualizer_outputfile                 NULL # Specifies the output log file for visualizer
-visualizer_zlevel                      6 # Compression level of the visualizer output log (0=no comp, 9=highest)
-trace_enabled                          0 # Turn on traces
-trace_components                    none # comma seperated list of traces to enable. Complete list found in trace_streams.tup. Default none
-trace_sampling_core                    0 # The core which is printed using CORE_DPRINTF. Default 0
-trace_sampling_memory_partition                   -1 # The memory partition which is printed using MEMPART_DPRINTF. Default -1 (i.e. all)
-gddr_size                       2.2472MB # Size of GDDR in MB/GB.(GLOBAL_HEAP_START, GLOBAL_HEAP_START + gddr_size) would be used for unmanged memory, (GLOBAL_HEAP_START + gddr_size, GLOBAL_HEAP_START + gddr_size*2) would be used for managed memory. 
-page_table_walk_latency                  100 # Average page table walk latency (in core cycle).
-eviction_policy                      lru # Memory eviction policy: lru or random.
-percentage_of_free_page_buffer                 0.05 # Percentage of free page buffer to trigger the page eviction.
-page_size                            4KB # GDDR page size, only 4KB/2MB avaliable.
-pcie_bandwith                   16.0GB/s # PCI-e bandwith per direction, in GB/s.
-sim_prof_enable                        1 # Enable gpgpu-sim profiler
-hardware_prefetch                      1 # Enable gpgpu-sim hardware prefetcher
-page_fault_latency                 66645 # Average fault latency (in core cycle).
-enable_accurate_simulation                    0 # Enable page fault functional simulation.
-enable_ptx_file_line_stats                    1 # Turn on PTX source line statistic profiling. (1 = On)
-ptx_line_stats_filename gpgpu_inst_stats.txt # Output file for PTX source line statistics.
-gpgpu_kernel_launch_latency               222150 # Kernel launch latency in cycles. Default: 0
-gpgpu_cdp_enabled                      0 # Turn on CDP
-save_embedded_ptx                      0 # saves ptx files embedded in binary as <n>.ptx
-keep                                   0 # keep intermediate files created by GPGPU-Sim when interfacing with external programs
-gpgpu_ptx_save_converted_ptxplus                    0 # Saved converted ptxplus to a file
-ptx_opcode_latency_int         4,13,4,5,145 # Opcode latencies for integers <ADD,MAX,MUL,MAD,DIV>Default 1,1,19,25,145
-ptx_opcode_latency_fp          4,13,4,5,39 # Opcode latencies for single precision floating points <ADD,MAX,MUL,MAD,DIV>Default 1,1,1,1,30
-ptx_opcode_latency_dp         8,19,8,8,330 # Opcode latencies for double precision floating points <ADD,MAX,MUL,MAD,DIV>Default 8,8,8,8,335
-ptx_opcode_initiation_int            1,2,2,2,8 # Opcode initiation intervals for integers <ADD,MAX,MUL,MAD,DIV>Default 1,1,4,4,32
-ptx_opcode_initiation_fp            1,2,1,1,4 # Opcode initiation intervals for single precision floating points <ADD,MAX,MUL,MAD,DIV>Default 1,1,1,1,5
-ptx_opcode_initiation_dp          1,2,1,1,130 # Opcode initiation intervals for double precision floating points <ADD,MAX,MUL,MAD,DIV>Default 8,8,8,8,130
-cdp_latency         7200,8000,100,12000,1600 # CDP API latency <cudaStreamCreateWithFlags, cudaGetParameterBufferV2_init_perWarp, cudaGetParameterBufferV2_perKernel, cudaLaunchDeviceV2_init_perWarp, cudaLaunchDevicV2_perKernel>Default 7200,8000,100,12000,1600
DRAM Timing Options:
nbk                                    16 # number of banks
CCD                                     2 # column to column delay
RRD                                     6 # minimal delay between activation of rows in different banks
RCD                                    12 # row to column delay
RAS                                    28 # time needed to activate row
RP                                     12 # time needed to precharge (deactivate) row
RC                                     40 # row cycle time
CDLR                                    5 # switching from write to read (changes tWTR)
WR                                     12 # last data-in to row precharge
CL                                     12 # CAS latency
WL                                      4 # Write latency
nbkgrp                                  1 # number of bank groups
CCDL                                    0 # column to column delay between accesses to different bank groups
RTPL                                    0 # read to precharge delay between accesses to different bank groups
Total number of memory sub partition = 22
addr_dec_mask[CHIP]  = 0000000000000000 	high:64 low:0
addr_dec_mask[BK]    = 0000000000007080 	high:15 low:7
addr_dec_mask[ROW]   = 000000000fff8000 	high:28 low:15
addr_dec_mask[COL]   = 0000000000000f7f 	high:12 low:0
addr_dec_mask[BURST] = 000000000000001f 	high:5 low:0
sub_partition_id_mask = 0000000000000080
GPGPU-Sim uArch: clock freqs: 1481000000.000000:2962000000.000000:1481000000.000000:2750000000.000000
GPGPU-Sim uArch: clock periods: 0.00000000067521944632:0.00000000033760972316:0.00000000067521944632:0.00000000036363636364
*** Initializing Memory Statistics ***
GPGPU-Sim uArch: interconnect node map (shaderID+MemID to icntID)
GPGPU-Sim uArch: Memory nodes ID start from index: 28
GPGPU-Sim uArch:    0   1   2   3   4   5   6
GPGPU-Sim uArch:    7   8   9  10  11  12  13
GPGPU-Sim uArch:   14  15  16  17  18  19  20
GPGPU-Sim uArch:   21  22  23  24  25  26  27
GPGPU-Sim uArch:   28  29  30  31  32  33  34
GPGPU-Sim uArch:   35  36  37  38  39  40  41
GPGPU-Sim uArch:   42  43  44  45  46  47  48
GPGPU-Sim uArch:   49
GPGPU-Sim uArch: interconnect node reverse map (icntID to shaderID+MemID)
GPGPU-Sim uArch: Memory nodes start from ID: 28
GPGPU-Sim uArch:    0   1   2   3   4   5   6
GPGPU-Sim uArch:    7   8   9  10  11  12  13
GPGPU-Sim uArch:   14  15  16  17  18  19  20
GPGPU-Sim uArch:   21  22  23  24  25  26  27
GPGPU-Sim uArch:   28  29  30  31  32  33  34
GPGPU-Sim uArch:   35  36  37  38  39  40  41
GPGPU-Sim uArch:   42  43  44  45  46  47  48
GPGPU-Sim uArch:   49
d864f0c6bc0179d3dd5a78c9b55f5373  /home/gpuser/Documents/gpgpu-sim_UVM_new_backprop/benchmarks/Managed/backprop_free_0.05/backprop
GPGPU-Sim uArch: performance model initialization complete.
GPGPU-Sim PTX: __cudaRegisterFatBinary, fat_cubin_handle = 1, filename=default
self exe links to: /home/gpuser/Documents/gpgpu-sim_UVM_new_backprop/benchmarks/Managed/backprop_free_0.05/backprop
Running md5sum using "md5sum /home/gpuser/Documents/gpgpu-sim_UVM_new_backprop/benchmarks/Managed/backprop_free_0.05/backprop "
Parsing file _cuobjdump_complete_output_1EhoV9
######### cuobjdump parser ########
## Adding new section ELF
Adding arch: sm_20
Adding identifier: default
## Adding new section ELF
Adding arch: sm_20
Adding identifier: default
## Adding new section PTX
Adding ptx filename: _cuobjdump_1.ptx
Adding arch: sm_20
Adding identifier: default
Done parsing!!!
GPGPU-Sim PTX: __cudaRegisterFunction _Z24bpnn_adjust_weights_cudaPfiS_iS_S_ : hostFun 0x0x402d5b, fat_cubin_handle = 1
GPGPU-Sim PTX: allocating shared region for "_Z22bpnn_layerforward_CUDAPfS_S_S_ii$__cuda_local_var_17900_34_non_const_input_node" from 0x0 to 0x40 (shared memory space)
GPGPU-Sim PTX: allocating shared region for "_Z22bpnn_layerforward_CUDAPfS_S_S_ii$__cuda_local_var_17901_34_non_const_weight_matrix" from 0x80 to 0x480 (shared memory space)
GPGPU-Sim PTX: instruction assembly for function '_Z22bpnn_layerforward_CUDAPfS_S_S_ii'...   done.
GPGPU-Sim PTX: finding reconvergence points for '_Z22bpnn_layerforward_CUDAPfS_S_S_ii'...
GPGPU-Sim PTX: Finding dominators for '_Z22bpnn_layerforward_CUDAPfS_S_S_ii'...
GPGPU-Sim PTX: Finding immediate dominators for '_Z22bpnn_layerforward_CUDAPfS_S_S_ii'...
GPGPU-Sim PTX: Finding postdominators for '_Z22bpnn_layerforward_CUDAPfS_S_S_ii'...
GPGPU-Sim PTX: Finding immediate postdominators for '_Z22bpnn_layerforward_CUDAPfS_S_S_ii'...
GPGPU-Sim PTX: pre-decoding instructions for '_Z22bpnn_layerforward_CUDAPfS_S_S_ii'...
GPGPU-Sim PTX: reconvergence points for _Z22bpnn_layerforward_CUDAPfS_S_S_ii...
GPGPU-Sim PTX:  1 (potential) branch divergence @  PC=0x068 (_1.ptx:47) @%p2 bra BB0_2;
GPGPU-Sim PTX:    immediate post dominator      @  PC=0x0a0 (_1.ptx:57) cvta.to.global.u64 %rd3, %rd8;
GPGPU-Sim PTX:  2 (potential) branch divergence @  PC=0x168 (_1.ptx:82) @%p3 bra BB0_7;
GPGPU-Sim PTX:    immediate post dominator      @  PC=0x250 (_1.ptx:119) setp.eq.s32%p1, %r3, 0;
GPGPU-Sim PTX:  3 (potential) branch divergence @  PC=0x1c8 (_1.ptx:97) @%p4 bra BB0_6;
GPGPU-Sim PTX:    immediate post dominator      @  PC=0x228 (_1.ptx:112) bar.sync 0;
GPGPU-Sim PTX:  4 (potential) branch divergence @  PC=0x248 (_1.ptx:116) @%p5 bra BB0_4;
GPGPU-Sim PTX:    immediate post dominator      @  PC=0x250 (_1.ptx:119) setp.eq.s32%p1, %r3, 0;
GPGPU-Sim PTX:  5 (potential) branch divergence @  PC=0x270 (_1.ptx:123) @!%p1 bra BB0_9;
GPGPU-Sim PTX:    immediate post dominator      @  PC=0x2c8 (_1.ptx:138) ret;
GPGPU-Sim PTX:  6 (potential) branch divergence @  PC=0x278 (_1.ptx:124) bra.uni BB0_8;
GPGPU-Sim PTX:    immediate post dominator      @  PC=0x280 (_1.ptx:127) cvt.u32.u64%r20, %rd1;
GPGPU-Sim PTX: ... end of reconvergence points for _Z22bpnn_layerforward_CUDAPfS_S_S_ii
GPGPU-Sim PTX: ... done pre-decoding instructions for '_Z22bpnn_layerforward_CUDAPfS_S_S_ii'.
GPGPU-Sim PTX: instruction assembly for function '_Z24bpnn_adjust_weights_cudaPfiS_iS_S_'...   done.
GPGPU-Sim PTX: finding reconvergence points for '_Z24bpnn_adjust_weights_cudaPfiS_iS_S_'...
GPGPU-Sim PTX: Finding dominators for '_Z24bpnn_adjust_weights_cudaPfiS_iS_S_'...
GPGPU-Sim PTX: Finding immediate dominators for '_Z24bpnn_adjust_weights_cudaPfiS_iS_S_'...
GPGPU-Sim PTX: Finding postdominators for '_Z24bpnn_adjust_weights_cudaPfiS_iS_S_'...
GPGPU-Sim PTX: Finding immediate postdominators for '_Z24bpnn_adjust_weights_cudaPfiS_iS_S_'...
GPGPU-Sim PTX: pre-decoding instructions for '_Z24bpnn_adjust_weights_cudaPfiS_iS_S_'...
GPGPU-Sim PTX: reconvergence points for _Z24bpnn_adjust_weights_cudaPfiS_iS_S_...
GPGPU-Sim PTX:  1 (potential) branch divergence @  PC=0x470 (_1.ptx:210) @%p1 bra BB1_2;
GPGPU-Sim PTX:    immediate post dominator      @  PC=0x530 (_1.ptx:237) ret;
GPGPU-Sim PTX: ... end of reconvergence points for _Z24bpnn_adjust_weights_cudaPfiS_iS_S_
GPGPU-Sim PTX: ... done pre-decoding instructions for '_Z24bpnn_adjust_weights_cudaPfiS_iS_S_'.
GPGPU-Sim PTX: finished parsing EMBEDDED .ptx file _1.ptx
Adding _cuobjdump_1.ptx with cubin handle 1
GPGPU-Sim PTX: extracting embedded .ptx to temporary file "_ptx_xr27TO"
Running: cat _ptx_xr27TO | sed 's/.version 1.5/.version 1.4/' | sed 's/, texmode_independent//' | sed 's/\(\.extern \.const\[1\] .b8 \w\+\)\[\]/\1\[1\]/' | sed 's/const\[.\]/const\[0\]/g' > _ptx2_3KwTSt
GPGPU-Sim PTX: generating ptxinfo using "$CUDA_INSTALL_PATH/bin/ptxas --gpu-name=sm_20 -v _ptx2_3KwTSt --output-file  /dev/null 2> _ptx_xr27TOinfo"
GPGPU-Sim PTX: Kernel '_Z24bpnn_adjust_weights_cudaPfiS_iS_S_' : regs=22, lmem=0, smem=0, cmem=80
GPGPU-Sim PTX: Kernel '_Z22bpnn_layerforward_CUDAPfS_S_S_ii' : regs=11, lmem=0, smem=1088, cmem=72
GPGPU-Sim PTX: removing ptxinfo using "rm -f _ptx_xr27TO _ptx2_3KwTSt _ptx_xr27TOinfo"
GPGPU-Sim PTX: loading globals with explicit initializers... 
GPGPU-Sim PTX: finished loading globals (0 bytes total).
GPGPU-Sim PTX: loading constants with explicit initializers...  done.
GPGPU-Sim PTX: __cudaRegisterFunction _Z22bpnn_layerforward_CUDAPfS_S_S_ii : hostFun 0x0x402c0a, fat_cubin_handle = 1
Random number generator seed: 7
cudaMallocManaged called
cudaMallocManaged called
cudaMallocManaged called
cudaMallocManaged called
cudaMallocManaged called
cudaMallocManaged called
cudaMallocManaged called
cudaMallocManaged called
cudaMallocManaged called
cudaMallocManaged called
cudaMallocManaged called
Input layer size : 18000
Starting training kernel
Performing GPU computation

GPGPU-Sim PTX: cudaLaunch for 0x0x402c0a (mode=performance simulation) on stream 0
GPGPU-Sim PTX: pushing kernel '_Z22bpnn_layerforward_CUDAPfS_S_S_ii' to stream 0, gridDim= (1,1125,1) blockDim = (16,16,1) 
GPGPU-Sim uArch: Shader 1 bind to kernel 1 '_Z22bpnn_layerforward_CUDAPfS_S_S_ii'
GPGPU-Sim uArch: CTA/core = 8, limited by: threads
GPGPU-Sim uArch: Shader 2 bind to kernel 1 '_Z22bpnn_layerforward_CUDAPfS_S_S_ii'
GPGPU-Sim uArch: Shader 3 bind to kernel 1 '_Z22bpnn_layerforward_CUDAPfS_S_S_ii'
GPGPU-Sim uArch: Shader 4 bind to kernel 1 '_Z22bpnn_layerforward_CUDAPfS_S_S_ii'
GPGPU-Sim uArch: Shader 5 bind to kernel 1 '_Z22bpnn_layerforward_CUDAPfS_S_S_ii'
GPGPU-Sim uArch: Shader 6 bind to kernel 1 '_Z22bpnn_layerforward_CUDAPfS_S_S_ii'
GPGPU-Sim uArch: Shader 7 bind to kernel 1 '_Z22bpnn_layerforward_CUDAPfS_S_S_ii'
GPGPU-Sim uArch: Shader 8 bind to kernel 1 '_Z22bpnn_layerforward_CUDAPfS_S_S_ii'
GPGPU-Sim uArch: Shader 9 bind to kernel 1 '_Z22bpnn_layerforward_CUDAPfS_S_S_ii'
GPGPU-Sim uArch: Shader 10 bind to kernel 1 '_Z22bpnn_layerforward_CUDAPfS_S_S_ii'
GPGPU-Sim uArch: Shader 11 bind to kernel 1 '_Z22bpnn_layerforward_CUDAPfS_S_S_ii'
GPGPU-Sim uArch: Shader 12 bind to kernel 1 '_Z22bpnn_layerforward_CUDAPfS_S_S_ii'
GPGPU-Sim uArch: Shader 13 bind to kernel 1 '_Z22bpnn_layerforward_CUDAPfS_S_S_ii'
GPGPU-Sim uArch: Shader 14 bind to kernel 1 '_Z22bpnn_layerforward_CUDAPfS_S_S_ii'
GPGPU-Sim uArch: Shader 15 bind to kernel 1 '_Z22bpnn_layerforward_CUDAPfS_S_S_ii'
GPGPU-Sim uArch: Shader 16 bind to kernel 1 '_Z22bpnn_layerforward_CUDAPfS_S_S_ii'
GPGPU-Sim uArch: Shader 17 bind to kernel 1 '_Z22bpnn_layerforward_CUDAPfS_S_S_ii'
GPGPU-Sim uArch: Shader 18 bind to kernel 1 '_Z22bpnn_layerforward_CUDAPfS_S_S_ii'
GPGPU-Sim uArch: Shader 19 bind to kernel 1 '_Z22bpnn_layerforward_CUDAPfS_S_S_ii'
GPGPU-Sim uArch: Shader 20 bind to kernel 1 '_Z22bpnn_layerforward_CUDAPfS_S_S_ii'
GPGPU-Sim uArch: Shader 21 bind to kernel 1 '_Z22bpnn_layerforward_CUDAPfS_S_S_ii'
GPGPU-Sim uArch: Shader 22 bind to kernel 1 '_Z22bpnn_layerforward_CUDAPfS_S_S_ii'
GPGPU-Sim uArch: Shader 23 bind to kernel 1 '_Z22bpnn_layerforward_CUDAPfS_S_S_ii'
GPGPU-Sim uArch: Shader 24 bind to kernel 1 '_Z22bpnn_layerforward_CUDAPfS_S_S_ii'
GPGPU-Sim uArch: Shader 25 bind to kernel 1 '_Z22bpnn_layerforward_CUDAPfS_S_S_ii'
GPGPU-Sim uArch: Shader 26 bind to kernel 1 '_Z22bpnn_layerforward_CUDAPfS_S_S_ii'
GPGPU-Sim uArch: Shader 27 bind to kernel 1 '_Z22bpnn_layerforward_CUDAPfS_S_S_ii'
GPGPU-Sim uArch: Shader 0 bind to kernel 1 '_Z22bpnn_layerforward_CUDAPfS_S_S_ii'
Destroy streams for kernel 1: size 0
kernel_name = _Z22bpnn_layerforward_CUDAPfS_S_S_ii 
kernel_launch_uid = 1 
gpu_sim_cycle = 299603
gpu_sim_insn = 30888000
gpu_ipc =     103.0964
gpu_tot_sim_cycle = 521753
gpu_tot_sim_insn = 30888000
gpu_tot_ipc =      59.2004
gpu_tot_issued_cta = 1125
max_total_param_size = 0
gpu_stall_dramfull = 507
gpu_stall_icnt2sh    = 52034
partiton_reqs_in_parallel = 6590759
partiton_reqs_in_parallel_total    = 0
partiton_level_parallism =      21.9983
partiton_level_parallism_total  =      12.6320
partiton_reqs_in_parallel_util = 6590759
partiton_reqs_in_parallel_util_total    = 0
gpu_sim_cycle_parition_util = 299603
gpu_tot_sim_cycle_parition_util    = 0
partiton_level_parallism_util =      21.9983
partiton_level_parallism_util_total  =      21.9983
partiton_replys_in_parallel = 54758
partiton_replys_in_parallel_total    = 0
L2_BW  =      17.3235 GB/Sec
L2_BW_total  =       9.9476 GB/Sec
gpu_total_sim_rate=24302

========= Core cache stats =========
L1I_cache:
	L1I_total_cache_accesses = 642375
	L1I_total_cache_misses = 3489
	L1I_total_cache_miss_rate = 0.0054
	L1I_total_cache_pending_hits = 0
	L1I_total_cache_reservation_fails = 6846
L1D_cache:
	L1D_cache_core[0]: Access = 0, Miss = 0, Miss_rate = -nan, Pending_hits = 0, Reservation_fails = 0
	L1D_cache_core[1]: Access = 0, Miss = 0, Miss_rate = -nan, Pending_hits = 0, Reservation_fails = 0
	L1D_cache_core[2]: Access = 0, Miss = 0, Miss_rate = -nan, Pending_hits = 0, Reservation_fails = 0
	L1D_cache_core[3]: Access = 0, Miss = 0, Miss_rate = -nan, Pending_hits = 0, Reservation_fails = 0
	L1D_cache_core[4]: Access = 0, Miss = 0, Miss_rate = -nan, Pending_hits = 0, Reservation_fails = 0
	L1D_cache_core[5]: Access = 0, Miss = 0, Miss_rate = -nan, Pending_hits = 0, Reservation_fails = 0
	L1D_cache_core[6]: Access = 0, Miss = 0, Miss_rate = -nan, Pending_hits = 0, Reservation_fails = 0
	L1D_cache_core[7]: Access = 0, Miss = 0, Miss_rate = -nan, Pending_hits = 0, Reservation_fails = 0
	L1D_cache_core[8]: Access = 0, Miss = 0, Miss_rate = -nan, Pending_hits = 0, Reservation_fails = 0
	L1D_cache_core[9]: Access = 0, Miss = 0, Miss_rate = -nan, Pending_hits = 0, Reservation_fails = 0
	L1D_cache_core[10]: Access = 0, Miss = 0, Miss_rate = -nan, Pending_hits = 0, Reservation_fails = 0
	L1D_cache_core[11]: Access = 0, Miss = 0, Miss_rate = -nan, Pending_hits = 0, Reservation_fails = 0
	L1D_cache_core[12]: Access = 0, Miss = 0, Miss_rate = -nan, Pending_hits = 0, Reservation_fails = 0
	L1D_cache_core[13]: Access = 0, Miss = 0, Miss_rate = -nan, Pending_hits = 0, Reservation_fails = 0
	L1D_cache_core[14]: Access = 0, Miss = 0, Miss_rate = -nan, Pending_hits = 0, Reservation_fails = 0
	L1D_cache_core[15]: Access = 0, Miss = 0, Miss_rate = -nan, Pending_hits = 0, Reservation_fails = 0
	L1D_cache_core[16]: Access = 0, Miss = 0, Miss_rate = -nan, Pending_hits = 0, Reservation_fails = 0
	L1D_cache_core[17]: Access = 0, Miss = 0, Miss_rate = -nan, Pending_hits = 0, Reservation_fails = 0
	L1D_cache_core[18]: Access = 0, Miss = 0, Miss_rate = -nan, Pending_hits = 0, Reservation_fails = 0
	L1D_cache_core[19]: Access = 0, Miss = 0, Miss_rate = -nan, Pending_hits = 0, Reservation_fails = 0
	L1D_cache_core[20]: Access = 0, Miss = 0, Miss_rate = -nan, Pending_hits = 0, Reservation_fails = 0
	L1D_cache_core[21]: Access = 0, Miss = 0, Miss_rate = -nan, Pending_hits = 0, Reservation_fails = 0
	L1D_cache_core[22]: Access = 0, Miss = 0, Miss_rate = -nan, Pending_hits = 0, Reservation_fails = 0
	L1D_cache_core[23]: Access = 0, Miss = 0, Miss_rate = -nan, Pending_hits = 0, Reservation_fails = 0
	L1D_cache_core[24]: Access = 0, Miss = 0, Miss_rate = -nan, Pending_hits = 0, Reservation_fails = 0
	L1D_cache_core[25]: Access = 0, Miss = 0, Miss_rate = -nan, Pending_hits = 0, Reservation_fails = 0
	L1D_cache_core[26]: Access = 0, Miss = 0, Miss_rate = -nan, Pending_hits = 0, Reservation_fails = 0
	L1D_cache_core[27]: Access = 0, Miss = 0, Miss_rate = -nan, Pending_hits = 0, Reservation_fails = 0
	L1D_total_cache_accesses = 0
	L1D_total_cache_misses = 0
	L1D_total_cache_pending_hits = 0
	L1D_total_cache_reservation_fails = 0
	L1D_cache_data_port_util = 0.000
	L1D_cache_fill_port_util = 0.000
L1C_cache:
	L1C_total_cache_accesses = 36000
	L1C_total_cache_misses = 1792
	L1C_total_cache_miss_rate = 0.0498
	L1C_total_cache_pending_hits = 0
	L1C_total_cache_reservation_fails = 4886
L1T_cache:
	L1T_total_cache_accesses = 0
	L1T_total_cache_misses = 0
	L1T_total_cache_pending_hits = 0
	L1T_total_cache_reservation_fails = 0

Total_core_cache_stats:
	Total_core_cache_stats_breakdown[GLOBAL_ACC_R][HIT] = 0
	Total_core_cache_stats_breakdown[GLOBAL_ACC_R][HIT_RESERVED] = 0
	Total_core_cache_stats_breakdown[GLOBAL_ACC_R][MISS] = 0
	Total_core_cache_stats_breakdown[GLOBAL_ACC_R][RESERVATION_FAIL] = 0
	Total_core_cache_stats_breakdown[LOCAL_ACC_R][HIT] = 0
	Total_core_cache_stats_breakdown[LOCAL_ACC_R][HIT_RESERVED] = 0
	Total_core_cache_stats_breakdown[LOCAL_ACC_R][MISS] = 0
	Total_core_cache_stats_breakdown[LOCAL_ACC_R][RESERVATION_FAIL] = 0
	Total_core_cache_stats_breakdown[CONST_ACC_R][HIT] = 34208
	Total_core_cache_stats_breakdown[CONST_ACC_R][HIT_RESERVED] = 0
	Total_core_cache_stats_breakdown[CONST_ACC_R][MISS] = 1792
	Total_core_cache_stats_breakdown[CONST_ACC_R][RESERVATION_FAIL] = 4886
	Total_core_cache_stats_breakdown[TEXTURE_ACC_R][HIT] = 0
	Total_core_cache_stats_breakdown[TEXTURE_ACC_R][HIT_RESERVED] = 0
	Total_core_cache_stats_breakdown[TEXTURE_ACC_R][MISS] = 0
	Total_core_cache_stats_breakdown[TEXTURE_ACC_R][RESERVATION_FAIL] = 0
	Total_core_cache_stats_breakdown[GLOBAL_ACC_W][HIT] = 0
	Total_core_cache_stats_breakdown[GLOBAL_ACC_W][HIT_RESERVED] = 0
	Total_core_cache_stats_breakdown[GLOBAL_ACC_W][MISS] = 0
	Total_core_cache_stats_breakdown[GLOBAL_ACC_W][RESERVATION_FAIL] = 0
	Total_core_cache_stats_breakdown[LOCAL_ACC_W][HIT] = 0
	Total_core_cache_stats_breakdown[LOCAL_ACC_W][HIT_RESERVED] = 0
	Total_core_cache_stats_breakdown[LOCAL_ACC_W][MISS] = 0
	Total_core_cache_stats_breakdown[LOCAL_ACC_W][RESERVATION_FAIL] = 0
	Total_core_cache_stats_breakdown[L1_WRBK_ACC][HIT] = 0
	Total_core_cache_stats_breakdown[L1_WRBK_ACC][HIT_RESERVED] = 0
	Total_core_cache_stats_breakdown[L1_WRBK_ACC][MISS] = 0
	Total_core_cache_stats_breakdown[L1_WRBK_ACC][RESERVATION_FAIL] = 0
	Total_core_cache_stats_breakdown[L2_WRBK_ACC][HIT] = 0
	Total_core_cache_stats_breakdown[L2_WRBK_ACC][HIT_RESERVED] = 0
	Total_core_cache_stats_breakdown[L2_WRBK_ACC][MISS] = 0
	Total_core_cache_stats_breakdown[L2_WRBK_ACC][RESERVATION_FAIL] = 0
	Total_core_cache_stats_breakdown[INST_ACC_R][HIT] = 638886
	Total_core_cache_stats_breakdown[INST_ACC_R][HIT_RESERVED] = 0
	Total_core_cache_stats_breakdown[INST_ACC_R][MISS] = 3489
	Total_core_cache_stats_breakdown[INST_ACC_R][RESERVATION_FAIL] = 6846
	Total_core_cache_stats_breakdown[L1_WR_ALLOC_R][HIT] = 0
	Total_core_cache_stats_breakdown[L1_WR_ALLOC_R][HIT_RESERVED] = 0
	Total_core_cache_stats_breakdown[L1_WR_ALLOC_R][MISS] = 0
	Total_core_cache_stats_breakdown[L1_WR_ALLOC_R][RESERVATION_FAIL] = 0
	Total_core_cache_stats_breakdown[L2_WR_ALLOC_R][HIT] = 0
	Total_core_cache_stats_breakdown[L2_WR_ALLOC_R][HIT_RESERVED] = 0
	Total_core_cache_stats_breakdown[L2_WR_ALLOC_R][MISS] = 0
	Total_core_cache_stats_breakdown[L2_WR_ALLOC_R][RESERVATION_FAIL] = 0
	Total_core_cache_stats_breakdown[CONST_ACC_R][TOTAL_ACCESS] = 36000
	Total_core_cache_stats_breakdown[INST_ACC_R][TOTAL_ACCESS] = 642375
Shader 0 warp_id issue ditsribution:
warp_id:
0, 1, 2, 3, 4, 5, 6, 7, 8, 9, 10, 11, 12, 13, 14, 15, 16, 17, 18, 19, 20, 21, 22, 23, 24, 25, 26, 27, 28, 29, 30, 31, 32, 33, 34, 35, 36, 37, 38, 39, 40, 41, 42, 43, 44, 45, 46, 47, 48, 49, 50, 51, 52, 53, 54, 55, 56, 57, 58, 59, 60, 61, 62, 63, 
distro:
900, 712, 775, 713, 841, 715, 781, 718, 901, 713, 775, 715, 842, 713, 780, 720, 903, 716, 777, 716, 844, 717, 783, 720, 902, 714, 776, 714, 843, 714, 781, 719, 900, 717, 776, 713, 844, 715, 780, 718, 904, 716, 778, 715, 845, 717, 784, 721, 902, 716, 776, 718, 843, 717, 784, 720, 902, 715, 775, 716, 843, 714, 783, 723, 
gpgpu_n_tot_thrd_icount = 39060000
gpgpu_n_tot_w_icount = 1220625
gpgpu_n_stall_shd_mem = 49074
gpgpu_n_mem_read_local = 0
gpgpu_n_mem_write_local = 0
gpgpu_n_mem_read_global = 27562
gpgpu_n_mem_write_global = 27000
gpgpu_n_mem_texture = 0
gpgpu_n_mem_const = 28
gpgpu_n_load_insn  = 306000
gpgpu_n_store_insn = 306000
gpgpu_n_shmem_insn = 2286000
gpgpu_n_tex_insn = 0
gpgpu_n_const_mem_insn = 0
gpgpu_n_param_mem_insn = 1152000
gpgpu_n_shmem_bkconflict = 0
gpgpu_n_cache_bkconflict = 0
gpgpu_n_intrawarp_mshr_merge = 0
gpgpu_n_cmem_portconflict = 4886
gpgpu_stall_shd_mem[c_mem][bk_conf] = 4886
gpgpu_stall_shd_mem[c_mem][mshr_rc] = 0
gpgpu_stall_shd_mem[c_mem][icnt_rc] = 0
gpgpu_stall_shd_mem[c_mem][data_port_stall] = 0
gpgpu_stall_shd_mem[t_mem][mshr_rc] = 0
gpgpu_stall_shd_mem[t_mem][icnt_rc] = 0
gpgpu_stall_shd_mem[t_mem][data_port_stall] = 0
gpgpu_stall_shd_mem[s_mem][bk_conf] = 0
gpgpu_stall_shd_mem[gl_mem][bk_conf] = 0
gpgpu_stall_shd_mem[gl_mem][coal_stall] = 37083
gpgpu_stall_shd_mem[gl_mem][data_port_stall] = 0
gpgpu_stall_shd_mem[g_mem_ld][mshr_rc] = 0
gpgpu_stall_shd_mem[g_mem_ld][icnt_rc] = 7105
gpgpu_stall_shd_mem[g_mem_ld][wb_icnt_rc] = 0
gpgpu_stall_shd_mem[g_mem_ld][wb_rsrv_fail] = 0
gpgpu_stall_shd_mem[g_mem_st][mshr_rc] = 0
gpgpu_stall_shd_mem[g_mem_st][icnt_rc] = 0
gpgpu_stall_shd_mem[g_mem_st][wb_icnt_rc] = 0
gpgpu_stall_shd_mem[g_mem_st][wb_rsrv_fail] = 0
gpgpu_stall_shd_mem[l_mem_ld][mshr_rc] = 0
gpgpu_stall_shd_mem[l_mem_ld][icnt_rc] = 0
gpgpu_stall_shd_mem[l_mem_ld][wb_icnt_rc] = 0
gpgpu_stall_shd_mem[l_mem_ld][wb_rsrv_fail] = 0
gpgpu_stall_shd_mem[l_mem_st][mshr_rc] = 0
gpgpu_stall_shd_mem[l_mem_st][icnt_rc] = 0
gpgpu_stall_shd_mem[l_mem_ld][wb_icnt_rc] = 0
gpgpu_stall_shd_mem[l_mem_ld][wb_rsrv_fail] = 0
gpu_reg_bank_conflict_stalls = 0
Warp Occupancy Distribution:
Stall:55776	W0_Idle:880080	W0_Scoreboard:14781020	W1:0	W2:144000	W3:0	W4:0	W5:0	W6:0	W7:0	W8:0	W9:0	W10:0	W11:0	W12:0	W13:0	W14:0	W15:0	W16:185625	W17:0	W18:0	W19:0	W20:0	W21:0	W22:0	W23:0	W24:0	W25:0	W26:0	W27:0	W28:0	W29:0	W30:0	W31:0	W32:891000
traffic_breakdown_coretomem[CONST_ACC_R] = 224 {8:28,}
traffic_breakdown_coretomem[GLOBAL_ACC_R] = 220496 {8:27562,}
traffic_breakdown_coretomem[GLOBAL_ACC_W] = 2087968 {40:13501,72:4499,136:9000,}
traffic_breakdown_coretomem[INST_ACC_R] = 1344 {8:168,}
traffic_breakdown_memtocore[CONST_ACC_R] = 2016 {72:28,}
traffic_breakdown_memtocore[GLOBAL_ACC_R] = 2200496 {40:12375,72:5624,136:9563,}
traffic_breakdown_memtocore[GLOBAL_ACC_W] = 216000 {8:27000,}
traffic_breakdown_memtocore[INST_ACC_R] = 22848 {136:168,}
maxmrqlatency = 449 
maxdqlatency = 0 
maxmflatency = 111956 
averagemflatency = 13019 
max_icnt2mem_latency = 111693 
max_icnt2sh_latency = 521752 
mrq_lat_table:6275 	414 	813 	2071 	2001 	1910 	1663 	1456 	1543 	0 	0 	0 	0 	0 	0 	0 	0 	0 	0 	0 	0 	0 	0 	0 	0 	0 	0 	0 	0 	0 	0 	0 	
dq_lat_table:0 	0 	0 	0 	0 	0 	0 	0 	0 	0 	0 	0 	0 	0 	0 	0 	0 	0 	0 	0 	0 	0 	0 	0 	0 	0 	0 	0 	0 	0 	0 	0 	
mf_lat_table:0 	0 	0 	0 	0 	0 	0 	24964 	10700 	1 	0 	1147 	208 	3061 	3446 	9760 	1303 	0 	0 	0 	0 	0 	0 	0 	0 	0 	0 	0 	0 	0 	0 	0 	
icnt2mem_lat_table:0 	0 	7733 	16128 	1429 	30 	9928 	585 	0 	0 	0 	1187 	168 	3061 	5993 	7213 	1303 	0 	0 	0 	0 	0 	0 	0 	
icnt2sh_lat_table:0 	0 	6354 	12907 	7762 	567 	0 	0 	0 	0 	0 	0 	0 	0 	0 	0 	0 	1984 	25016 	0 	0 	0 	0 	0 	
mf_lat_pw_table:0 	0 	0 	0 	0 	0 	0 	89 	13 	0 	1 	3 	0 	7 	11 	24 	24 	0 	0 	0 	0 	0 	0 	0 	0 	0 	0 	0 	0 	0 	0 	0 	
maximum concurrent accesses to same row:
dram[0]:        16        16        16        16        16        16        16        16        16        16        85        85        87        83        16        16 
dram[1]:        16        16        16        16        16        16        16        16        16        16        93        85        66       111        16        16 
dram[2]:        16        16        16        16        16        16        16        16        16        16        94        92        96       127        16        16 
dram[3]:        16        16        16        16        16        16        16        16        16        16        86        85        96        88        16        16 
dram[4]:        16        16        16        16        16        16        16        16        16        16        85        89       101       113        16        16 
dram[5]:        16        16        16        16        16        16        16        16        16        16       102       102       121       112        16        16 
dram[6]:        16        16        16        16        16        16        16        16        16        16       102       102       126       129        16        16 
dram[7]:        16        16        16        16        16        16        16        16        16        16       102       102       121       113        16        16 
dram[8]:        16        16        16        16        16        16        16        16        16        16       102       102        88        95        16        16 
dram[9]:        16        16        16        16        16        16        16        16        16        16       102       102       128       110        16        16 
dram[10]:        16        16        16        16        16        16        16        16        16        16       102       102       112        87        16        16 
maximum service time to same row:
dram[0]:    103479    103477    111519    111519    111507    111511     83541     83543     95549     95550     65023     64923     73414     73411     77731     77730 
dram[1]:    103438    103490    111521    111519    111514    111510     83542     83542     95553     95554     64980     65046     73417     73424     77731     77683 
dram[2]:    103409    103407    111517    111516    111503    111500     83543     83541     95551     95552     64774     65008     73398     73393     77683     77695 
dram[3]:    103405    103406    111513    111521    111513    111512     83541     83543     95553     95548     64796     64773     73394     73403     77696     77688 
dram[4]:    103462    103462    111520    111520    111485    111480     83542     83542     95549     95550     64880     64913     73392     73393     77687     77701 
dram[5]:    103406    103405    111520    111519    111508    111508     83541     83543     95548     95538     64926     64916     73409     73409     77702     77690 
dram[6]:    103426    103421    111521    111520    111506    111503     83542     83542     95540     95541     64905     64847     73414     73412     77779     77781 
dram[7]:    103421    103417    111519    111520    111504    111518     83534     83536     95541     95542     64746     64732     73410     73416     77779     77780 
dram[8]:    103419    103527    111520    111526    111518    111518     83535     83535     95544     95548     64759     64826     73418     73410     77778     77781 
dram[9]:    103520    103520    111526    111525    111520    111515     83535     83535     95554     95549     65024     64927     73406     73410     77782     77776 
dram[10]:    103521    103515    111525    111522    111507    111508     83534     83536     95550     95554     64581     64452     73412     73414     77763     77729 
average row accesses per activate:
dram[0]: 13.500000 13.250000 16.000000 16.000000 12.250000 12.250000 10.666667 10.666667  9.500000  9.500000 37.142857 35.142857 21.200001 24.875000 16.000000 16.000000 
dram[1]: 13.250000 13.250000 16.000000 16.000000 12.250000 12.250000 10.666667 10.666667  9.500000  9.333333 41.571430 39.285713 18.200001 19.416666 16.000000 16.000000 
dram[2]: 13.000000 13.000000 16.000000 16.000000 12.250000 12.250000 10.666667 10.666667  9.333333  7.000000 39.428570 40.285713 25.375000 24.200001 16.000000 16.000000 
dram[3]: 13.000000 13.000000 16.000000 16.000000 12.250000 12.250000 10.666667 10.666667  9.333333  7.000000 37.142857 37.571430 21.000000 24.375000 16.000000 16.000000 
dram[4]: 13.000000 13.000000 16.000000 16.000000 12.250000 12.250000 10.666667 10.666667  7.000000  7.000000 35.571430 37.571430 26.000000 35.166668 13.000000 13.000000 
dram[5]: 13.000000 13.000000 16.000000 16.000000 12.250000 12.250000 10.666667 10.666667  7.000000  9.333333 39.714287 39.571430 36.500000 27.375000 13.000000 13.000000 
dram[6]: 13.000000 13.000000 16.000000 16.000000 12.500000 12.500000 10.666667 10.666667  7.000000  7.000000 39.142857 40.857143 37.333332 37.833332 13.000000 13.000000 
dram[7]: 13.000000 13.000000 16.000000 16.000000 12.500000 12.500000 10.666667 10.666667  7.000000  7.000000 39.714287 41.000000 36.500000 35.166668 16.000000 16.000000 
dram[8]: 13.000000 13.000000 16.000000 16.000000 12.500000 12.500000 10.666667 10.666667  7.000000  7.000000 44.285713 40.000000 26.500000 27.375000 16.000000 16.000000 
dram[9]: 13.000000 13.000000 16.000000 16.000000 12.500000 12.500000 10.666667 10.666667  9.333333  9.333333 40.857143 40.857143 40.500000 37.500000 16.000000 16.000000 
dram[10]: 13.000000 13.000000 16.000000 16.000000 12.500000 12.500000 10.666667 10.666667  9.333333  9.333333 37.142857 39.714287 37.833332 26.375000 16.000000 16.000000 
average row locality = 18146/946 = 19.181818
number of total memory accesses made:
dram[0]:         0         0         0         0         0         0         0         0         0         0         0         0         0         0         0         0 
dram[1]:         0         0         0         0         0         0         0         0         0         0         0         0         0         0         0         0 
dram[2]:         0         0         0         0         0         0         0         0         0         0         0         0         0         0         0         0 
dram[3]:         0         0         0         0         0         0         0         0         0         0         0         0         0         0         0         0 
dram[4]:         0         0         0         0         0         0         0         0         0         0         0         0         0         0         0         0 
dram[5]:         0         0         0         0         0         0         0         0         0         0         0         0         0         0         0         0 
dram[6]:         0         0         0         0         0         0         0         0         0         0         0         0         0         0         0         0 
dram[7]:         0         0         0         0         0         0         0         0         0         0         0         0         0         0         0         0 
dram[8]:         0         0         0         0         0         0         0         0         0         0         0         0         0         0         0         0 
dram[9]:         0         0         0         0         0         0         0         0         0         0         0         0         0         0         0         0 
dram[10]:         0         0         0         0         0         0         0         0         0         0         0         0         0         0         0         0 
total accesses: 0
min_bank_accesses = 0!
min_chip_accesses = 0!
number of total read accesses:
dram[0]:        54        53        48        48        49        49        64        64        57        57        76        76        76        75        64        64 
dram[1]:        53        53        48        48        49        49        64        64        57        56        76        76        75        75        64        64 
dram[2]:        52        52        48        48        49        49        64        64        56        56        76        76        75        75        64        64 
dram[3]:        52        52        48        48        49        49        64        64        56        56        76        76        75        75        64        64 
dram[4]:        52        52        48        48        49        49        64        64        56        56        76        76        75        75        65        65 
dram[5]:        52        52        48        48        49        49        64        64        56        56        78        78        75        75        65        65 
dram[6]:        52        52        48        48        50        50        64        64        56        56        78        78        75        75        65        65 
dram[7]:        52        52        48        48        50        50        64        64        56        56        78        78        75        75        64        64 
dram[8]:        52        52        48        48        50        50        64        64        56        56        78        78        75        75        64        64 
dram[9]:        52        52        48        48        50        50        64        64        56        56        78        78        75        75        64        64 
dram[10]:        52        52        48        48        50        50        64        64        56        56        78        78        75        75        64        64 
total reads: 10697
bank skew: 78/48 = 1.62
chip skew: 976/968 = 1.01
number of total write accesses:
dram[0]:         0         0         0         0         0         0         0         0         0         0       184       170       136       124         0         0 
dram[1]:         0         0         0         0         0         0         0         0         0         0       215       199       107       158         0         0 
dram[2]:         0         0         0         0         0         0         0         0         0         0       200       206       128       167         0         0 
dram[3]:         0         0         0         0         0         0         0         0         0         0       184       187       135       120         0         0 
dram[4]:         0         0         0         0         0         0         0         0         0         0       173       187       133       136         0         0 
dram[5]:         0         0         0         0         0         0         0         0         0         0       200       199       144       144         0         0 
dram[6]:         0         0         0         0         0         0         0         0         0         0       196       208       149       152         0         0 
dram[7]:         0         0         0         0         0         0         0         0         0         0       200       209       144       136         0         0 
dram[8]:         0         0         0         0         0         0         0         0         0         0       232       202       137       144         0         0 
dram[9]:         0         0         0         0         0         0         0         0         0         0       208       208       168       150         0         0 
dram[10]:         0         0         0         0         0         0         0         0         0         0       182       200       152       136         0         0 
total reads: 7449
min_bank_accesses = 0!
chip skew: 734/614 = 1.20
average mf latency per bank:
dram[0]:      49505     50490     64753     64818     53642     52869     61764     61890     63741     64221     24631     26067     26497     28569     70251     70528
dram[1]:      51632     52497     66059     66152     53623     52886     61759     61845     61719     61244     22150     23430     30916     21948     70935     70711
dram[2]:      50375     50121     64721     64813     52849     52888     61764     61810     61145     61037     23171     22926     24399     20718     72108     71797
dram[3]:      49580     47851     64718     64804     52627     54768     62418     62534     63839     63819     23959     23381     24002     26369     70507     70839
dram[4]:      50977     51596     64731     64853     54134     52880     61777     61859     63873     63894     24693     23321     25617     24049     70308     70793
dram[5]:      51034     49380     64732     64821     52824     52884     61799     61900     63866     64284     24223     24588     23483     24636     70382     69916
dram[6]:      48107     50478     64727     65644     52930     52465     62788     62793     64014     64057     24679     23541     24527     23751     69818     69828
dram[7]:      51763     51803     65551     64853     53192     53206     59031     58976     63776     63842     24172     23399     24533     25431     70579     70284
dram[8]:      49376     49312     64711     64830     53136     53213     58935     58939     63544     64269     21741     24079     28417     25720     70344     70511
dram[9]:      51030     49902     64721     66147     53162     53991     58916     58932     66024     64760     23486     22905     22870     25540     71444     71528
dram[10]:      50916     49645     66063     64822     53165     53207     58925     58961     64726     64661     25015     23325     25066     26539     70670     72313
maximum mf latency per bank:
dram[0]:      98882     98933     63719     63786     63619     63643     63312     63371     63272     63321     75866     75881     94071     94073    111955    111937
dram[1]:      98921     98939     63708     63788     63586     63651     63318     63394     63252     63329     75883     75900     94070     94072    111937    111939
dram[2]:      98930     98938     63719     63789     63612     63669     63311     63389     63234     63373     75887     75900     94056     94056    111920    111930
dram[3]:      98939     98944     63719     63776     63578     63641     63334     63405     63325     63379     75883     75893     94056     94060    111930    111932
dram[4]:      98939     98938     63692     63834     63583     63649     63403     63395     63329     63385     75899     75884     94044     94046    111933    111950
dram[5]:      98937     98938     63702     63775     63553     63634     63305     63410     63340     63383     75892     75894     94047     94047    111932    111956
dram[6]:      98940     98940     63691     63772     63544     63627     63278     63356     63326     63366     75893     75902     94048     94052    111939    111950
dram[7]:      98910     98903     63673     63819     63565     63648     63312     63390     63270     63305     75894     75909     94068     94074    111938    111952
dram[8]:      98883     98901     63666     63805     63500     63579     63345     63385     63259     63354     75890     75890     94067     94084    111943    111937
dram[9]:      98883     98894     63676     63782     63492     63571     63324     63414     63282     63340     75877     75878     94091     94066    111950    111950
dram[10]:      98896     98886     63730     63766     63522     63609     63315     63416     63286     63316     75871     75876     94081     94086    111952    111953
Memory Partition 0: 
Cache L2_bank_000:
MSHR contents

Cache L2_bank_001:
MSHR contents

In Dram Latency Queue (total = 0): 
DRAM[0]: 16 bks, busW=4 BL=8 CL=12, tRRD=2 tCCD=6, tRCD=12 tRAS=28 tRP=12 tRC=40
n_cmd=556318 n_nop=551650 n_act=87 n_pre=71 n_req=1588 n_rd=3896 n_write=614 bw_util=0.01621
n_activity=12897 dram_eff=0.6994
bk0: 216a 554886i bk1: 212a 554621i bk2: 192a 555613i bk3: 192a 555260i bk4: 196a 555194i bk5: 196a 554882i bk6: 256a 555172i bk7: 256a 554825i bk8: 228a 554710i bk9: 228a 554386i bk10: 304a 553483i bk11: 304a 553074i bk12: 304a 553427i bk13: 300a 553462i bk14: 256a 554776i bk15: 256a 554449i 
dram_util_bins: 0 0 0 0 0 0 0 0 0 0
dram_eff_bins: 0 0 0 0 0 0 0 0 0 0
mrqq: max=64 avg=0.331264
Memory Partition 1: 
Cache L2_bank_002:
MSHR contents

Cache L2_bank_003:
MSHR contents

In Dram Latency Queue (total = 0): 
DRAM[1]: 16 bks, busW=4 BL=8 CL=12, tRRD=2 tCCD=6, tRCD=12 tRAS=28 tRP=12 tRC=40
n_cmd=556318 n_nop=551591 n_act=90 n_pre=74 n_req=1650 n_rd=3884 n_write=679 bw_util=0.0164
n_activity=13295 dram_eff=0.6864
bk0: 212a 554922i bk1: 212a 554633i bk2: 192a 555627i bk3: 192a 555234i bk4: 196a 555158i bk5: 196a 554887i bk6: 256a 555187i bk7: 256a 554821i bk8: 228a 554703i bk9: 224a 554309i bk10: 304a 553480i bk11: 304a 553016i bk12: 300a 553619i bk13: 300a 553202i bk14: 256a 554853i bk15: 256a 554370i 
dram_util_bins: 0 0 0 0 0 0 0 0 0 0
dram_eff_bins: 0 0 0 0 0 0 0 0 0 0
mrqq: max=64 avg=0.328567
Memory Partition 2: 
Cache L2_bank_004:
MSHR contents

Cache L2_bank_005:
MSHR contents

In Dram Latency Queue (total = 0): 
DRAM[2]: 16 bks, busW=4 BL=8 CL=12, tRRD=2 tCCD=6, tRCD=12 tRAS=28 tRP=12 tRC=40
n_cmd=556318 n_nop=551585 n_act=88 n_pre=72 n_req=1669 n_rd=3872 n_write=701 bw_util=0.01644
n_activity=13117 dram_eff=0.6973
bk0: 208a 554876i bk1: 208a 554715i bk2: 192a 555641i bk3: 192a 555273i bk4: 196a 555156i bk5: 196a 554864i bk6: 256a 555195i bk7: 256a 554823i bk8: 224a 554700i bk9: 224a 554313i bk10: 304a 553561i bk11: 304a 553065i bk12: 300a 553361i bk13: 300a 552851i bk14: 256a 554755i bk15: 256a 554503i 
dram_util_bins: 0 0 0 0 0 0 0 0 0 0
dram_eff_bins: 0 0 0 0 0 0 0 0 0 0
mrqq: max=64 avg=0.33629
Memory Partition 3: 
Cache L2_bank_006:
MSHR contents

Cache L2_bank_007:
MSHR contents

In Dram Latency Queue (total = 0): 
DRAM[3]: 16 bks, busW=4 BL=8 CL=12, tRRD=2 tCCD=6, tRCD=12 tRAS=28 tRP=12 tRC=40
n_cmd=556318 n_nop=551660 n_act=88 n_pre=72 n_req=1594 n_rd=3872 n_write=626 bw_util=0.01617
n_activity=12728 dram_eff=0.7068
bk0: 208a 554956i bk1: 208a 554872i bk2: 192a 555630i bk3: 192a 555268i bk4: 196a 555179i bk5: 196a 554882i bk6: 256a 555136i bk7: 256a 554754i bk8: 224a 554626i bk9: 224a 554226i bk10: 304a 553489i bk11: 304a 552962i bk12: 300a 553420i bk13: 300a 553204i bk14: 256a 554708i bk15: 256a 554329i 
dram_util_bins: 0 0 0 0 0 0 0 0 0 0
dram_eff_bins: 0 0 0 0 0 0 0 0 0 0
mrqq: max=64 avg=0.319181
Memory Partition 4: 
Cache L2_bank_008:
MSHR contents

Cache L2_bank_009:
MSHR contents

In Dram Latency Queue (total = 0): 
DRAM[4]: 16 bks, busW=4 BL=8 CL=12, tRRD=2 tCCD=6, tRCD=12 tRAS=28 tRP=12 tRC=40
n_cmd=556318 n_nop=551649 n_act=88 n_pre=72 n_req=1599 n_rd=3880 n_write=629 bw_util=0.01621
n_activity=12842 dram_eff=0.7022
bk0: 208a 555008i bk1: 208a 554838i bk2: 192a 555627i bk3: 192a 555258i bk4: 196a 555131i bk5: 196a 554858i bk6: 256a 555142i bk7: 256a 554708i bk8: 224a 554562i bk9: 224a 554158i bk10: 304a 553475i bk11: 304a 552952i bk12: 300a 553429i bk13: 300a 553204i bk14: 260a 554716i bk15: 260a 554365i 
dram_util_bins: 0 0 0 0 0 0 0 0 0 0
dram_eff_bins: 0 0 0 0 0 0 0 0 0 0
mrqq: max=64 avg=0.32119
Memory Partition 5: 
Cache L2_bank_010:
MSHR contents

Cache L2_bank_011:
MSHR contents

In Dram Latency Queue (total = 0): 
DRAM[5]: 16 bks, busW=4 BL=8 CL=12, tRRD=2 tCCD=6, tRCD=12 tRAS=28 tRP=12 tRC=40
n_cmd=556318 n_nop=551579 n_act=86 n_pre=70 n_req=1661 n_rd=3896 n_write=687 bw_util=0.01648
n_activity=13030 dram_eff=0.7035
bk0: 208a 554985i bk1: 208a 554676i bk2: 192a 555610i bk3: 192a 555252i bk4: 196a 555120i bk5: 196a 554813i bk6: 256a 555064i bk7: 256a 554674i bk8: 224a 554529i bk9: 224a 554295i bk10: 312a 553438i bk11: 312a 552974i bk12: 300a 553534i bk13: 300a 553107i bk14: 260a 554770i bk15: 260a 554427i 
dram_util_bins: 0 0 0 0 0 0 0 0 0 0
dram_eff_bins: 0 0 0 0 0 0 0 0 0 0
mrqq: max=64 avg=0.330782
Memory Partition 6: 
Cache L2_bank_012:
MSHR contents

Cache L2_bank_013:
MSHR contents

In Dram Latency Queue (total = 0): 
DRAM[6]: 16 bks, busW=4 BL=8 CL=12, tRRD=2 tCCD=6, tRCD=12 tRAS=28 tRP=12 tRC=40
n_cmd=556318 n_nop=551553 n_act=86 n_pre=70 n_req=1681 n_rd=3904 n_write=705 bw_util=0.01657
n_activity=13261 dram_eff=0.6951
bk0: 208a 554980i bk1: 208a 554682i bk2: 192a 555607i bk3: 192a 555238i bk4: 200a 555115i bk5: 200a 554807i bk6: 256a 555086i bk7: 256a 554718i bk8: 224a 554631i bk9: 224a 554247i bk10: 312a 553433i bk11: 312a 552822i bk12: 300a 553635i bk13: 300a 553280i bk14: 260a 554738i bk15: 260a 554413i 
dram_util_bins: 0 0 0 0 0 0 0 0 0 0
dram_eff_bins: 0 0 0 0 0 0 0 0 0 0
mrqq: max=64 avg=0.333933
Memory Partition 7: 
Cache L2_bank_014:
MSHR contents

Cache L2_bank_015:
MSHR contents

In Dram Latency Queue (total = 0): 
DRAM[7]: 16 bks, busW=4 BL=8 CL=12, tRRD=2 tCCD=6, tRCD=12 tRAS=28 tRP=12 tRC=40
n_cmd=556318 n_nop=551581 n_act=84 n_pre=68 n_req=1663 n_rd=3896 n_write=689 bw_util=0.01648
n_activity=13013 dram_eff=0.7047
bk0: 208a 554996i bk1: 208a 554647i bk2: 192a 555600i bk3: 192a 555191i bk4: 200a 555052i bk5: 200a 554718i bk6: 256a 554998i bk7: 256a 554658i bk8: 224a 554486i bk9: 224a 554187i bk10: 312a 553407i bk11: 312a 552862i bk12: 300a 553646i bk13: 300a 553353i bk14: 256a 554840i bk15: 256a 554523i 
dram_util_bins: 0 0 0 0 0 0 0 0 0 0
dram_eff_bins: 0 0 0 0 0 0 0 0 0 0
mrqq: max=64 avg=0.335315
Memory Partition 8: 
Cache L2_bank_016:
MSHR contents

Cache L2_bank_017:
MSHR contents

In Dram Latency Queue (total = 0): 
DRAM[8]: 16 bks, busW=4 BL=8 CL=12, tRRD=2 tCCD=6, tRCD=12 tRAS=28 tRP=12 tRC=40
n_cmd=556318 n_nop=551547 n_act=88 n_pre=72 n_req=1689 n_rd=3896 n_write=715 bw_util=0.01658
n_activity=12980 dram_eff=0.7105
bk0: 208a 555061i bk1: 208a 554821i bk2: 192a 555613i bk3: 192a 555226i bk4: 200a 555083i bk5: 200a 554739i bk6: 256a 555029i bk7: 256a 554709i bk8: 224a 554484i bk9: 224a 554217i bk10: 312a 553165i bk11: 312a 552677i bk12: 300a 553754i bk13: 300a 553393i bk14: 256a 554814i bk15: 256a 554442i 
dram_util_bins: 0 0 0 0 0 0 0 0 0 0
dram_eff_bins: 0 0 0 0 0 0 0 0 0 0
mrqq: max=64 avg=0.333946
Memory Partition 9: 
Cache L2_bank_018:
MSHR contents

Cache L2_bank_019:
MSHR contents

In Dram Latency Queue (total = 0): 
DRAM[9]: 16 bks, busW=4 BL=8 CL=12, tRRD=2 tCCD=6, tRCD=12 tRAS=28 tRP=12 tRC=40
n_cmd=556318 n_nop=551544 n_act=80 n_pre=64 n_req=1708 n_rd=3896 n_write=734 bw_util=0.01665
n_activity=13039 dram_eff=0.7102
bk0: 208a 555084i bk1: 208a 554727i bk2: 192a 555581i bk3: 192a 555198i bk4: 200a 555139i bk5: 200a 554837i bk6: 256a 555033i bk7: 256a 554691i bk8: 224a 554635i bk9: 224a 554302i bk10: 312a 553435i bk11: 312a 552838i bk12: 300a 553797i bk13: 300a 553484i bk14: 256a 554807i bk15: 256a 554483i 
dram_util_bins: 0 0 0 0 0 0 0 0 0 0
dram_eff_bins: 0 0 0 0 0 0 0 0 0 0
mrqq: max=64 avg=0.334124
Memory Partition 10: 
Cache L2_bank_020:
MSHR contents

Cache L2_bank_021:
MSHR contents

In Dram Latency Queue (total = 0): 
DRAM[10]: 16 bks, busW=4 BL=8 CL=12, tRRD=2 tCCD=6, tRCD=12 tRAS=28 tRP=12 tRC=40
n_cmd=556318 n_nop=551604 n_act=82 n_pre=66 n_req=1644 n_rd=3896 n_write=670 bw_util=0.01642
n_activity=12849 dram_eff=0.7107
bk0: 208a 555114i bk1: 208a 554805i bk2: 192a 555592i bk3: 192a 555260i bk4: 200a 555147i bk5: 200a 554814i bk6: 256a 555121i bk7: 256a 554750i bk8: 224a 554660i bk9: 224a 554230i bk10: 312a 553439i bk11: 312a 552876i bk12: 300a 553709i bk13: 300a 553520i bk14: 256a 554693i bk15: 256a 554369i 
dram_util_bins: 0 0 0 0 0 0 0 0 0 0
dram_eff_bins: 0 0 0 0 0 0 0 0 0 0
mrqq: max=64 avg=0.32819

========= L2 cache stats =========
L2_cache_bank[0]: Access = 2516, Miss = 488, Miss_rate = 0.194, Pending_hits = 1058, Reservation_fails = 0
L2_cache_bank[1]: Access = 2480, Miss = 486, Miss_rate = 0.196, Pending_hits = 1037, Reservation_fails = 0
L2_cache_bank[2]: Access = 2470, Miss = 486, Miss_rate = 0.197, Pending_hits = 1010, Reservation_fails = 0
L2_cache_bank[3]: Access = 2461, Miss = 485, Miss_rate = 0.197, Pending_hits = 1059, Reservation_fails = 0
L2_cache_bank[4]: Access = 2459, Miss = 484, Miss_rate = 0.197, Pending_hits = 1008, Reservation_fails = 1
L2_cache_bank[5]: Access = 2459, Miss = 484, Miss_rate = 0.197, Pending_hits = 1091, Reservation_fails = 0
L2_cache_bank[6]: Access = 2459, Miss = 484, Miss_rate = 0.197, Pending_hits = 992, Reservation_fails = 0
L2_cache_bank[7]: Access = 2457, Miss = 484, Miss_rate = 0.197, Pending_hits = 1027, Reservation_fails = 0
L2_cache_bank[8]: Access = 2487, Miss = 485, Miss_rate = 0.195, Pending_hits = 1039, Reservation_fails = 0
L2_cache_bank[9]: Access = 2487, Miss = 485, Miss_rate = 0.195, Pending_hits = 1053, Reservation_fails = 0
L2_cache_bank[10]: Access = 2505, Miss = 487, Miss_rate = 0.194, Pending_hits = 1080, Reservation_fails = 0
L2_cache_bank[11]: Access = 2507, Miss = 487, Miss_rate = 0.194, Pending_hits = 1089, Reservation_fails = 0
L2_cache_bank[12]: Access = 2521, Miss = 488, Miss_rate = 0.194, Pending_hits = 1063, Reservation_fails = 0
L2_cache_bank[13]: Access = 2524, Miss = 488, Miss_rate = 0.193, Pending_hits = 1108, Reservation_fails = 0
L2_cache_bank[14]: Access = 2496, Miss = 487, Miss_rate = 0.195, Pending_hits = 1065, Reservation_fails = 0
L2_cache_bank[15]: Access = 2496, Miss = 487, Miss_rate = 0.195, Pending_hits = 1064, Reservation_fails = 0
L2_cache_bank[16]: Access = 2496, Miss = 487, Miss_rate = 0.195, Pending_hits = 1091, Reservation_fails = 0
L2_cache_bank[17]: Access = 2494, Miss = 487, Miss_rate = 0.195, Pending_hits = 1066, Reservation_fails = 0
L2_cache_bank[18]: Access = 2496, Miss = 487, Miss_rate = 0.195, Pending_hits = 1098, Reservation_fails = 0
L2_cache_bank[19]: Access = 2496, Miss = 487, Miss_rate = 0.195, Pending_hits = 1076, Reservation_fails = 0
L2_cache_bank[20]: Access = 2496, Miss = 487, Miss_rate = 0.195, Pending_hits = 1069, Reservation_fails = 0
L2_cache_bank[21]: Access = 2496, Miss = 487, Miss_rate = 0.195, Pending_hits = 1045, Reservation_fails = 0
L2_total_cache_accesses = 54758
L2_total_cache_misses = 10697
L2_total_cache_miss_rate = 0.1954
L2_total_cache_pending_hits = 23288
L2_total_cache_reservation_fails = 1
L2_total_cache_breakdown:
	L2_cache_stats_breakdown[GLOBAL_ACC_R][HIT] = 1192
	L2_cache_stats_breakdown[GLOBAL_ACC_R][HIT_RESERVED] = 16243
	L2_cache_stats_breakdown[GLOBAL_ACC_R][MISS] = 10127
	L2_cache_stats_breakdown[GLOBAL_ACC_R][RESERVATION_FAIL] = 0
	L2_cache_stats_breakdown[LOCAL_ACC_R][HIT] = 0
	L2_cache_stats_breakdown[LOCAL_ACC_R][HIT_RESERVED] = 0
	L2_cache_stats_breakdown[LOCAL_ACC_R][MISS] = 0
	L2_cache_stats_breakdown[LOCAL_ACC_R][RESERVATION_FAIL] = 0
	L2_cache_stats_breakdown[CONST_ACC_R][HIT] = 0
	L2_cache_stats_breakdown[CONST_ACC_R][HIT_RESERVED] = 27
	L2_cache_stats_breakdown[CONST_ACC_R][MISS] = 1
	L2_cache_stats_breakdown[CONST_ACC_R][RESERVATION_FAIL] = 0
	L2_cache_stats_breakdown[TEXTURE_ACC_R][HIT] = 0
	L2_cache_stats_breakdown[TEXTURE_ACC_R][HIT_RESERVED] = 0
	L2_cache_stats_breakdown[TEXTURE_ACC_R][MISS] = 0
	L2_cache_stats_breakdown[TEXTURE_ACC_R][RESERVATION_FAIL] = 0
	L2_cache_stats_breakdown[GLOBAL_ACC_W][HIT] = 19551
	L2_cache_stats_breakdown[GLOBAL_ACC_W][HIT_RESERVED] = 6886
	L2_cache_stats_breakdown[GLOBAL_ACC_W][MISS] = 563
	L2_cache_stats_breakdown[GLOBAL_ACC_W][RESERVATION_FAIL] = 1
	L2_cache_stats_breakdown[LOCAL_ACC_W][HIT] = 0
	L2_cache_stats_breakdown[LOCAL_ACC_W][HIT_RESERVED] = 0
	L2_cache_stats_breakdown[LOCAL_ACC_W][MISS] = 0
	L2_cache_stats_breakdown[LOCAL_ACC_W][RESERVATION_FAIL] = 0
	L2_cache_stats_breakdown[L1_WRBK_ACC][HIT] = 0
	L2_cache_stats_breakdown[L1_WRBK_ACC][HIT_RESERVED] = 0
	L2_cache_stats_breakdown[L1_WRBK_ACC][MISS] = 0
	L2_cache_stats_breakdown[L1_WRBK_ACC][RESERVATION_FAIL] = 0
	L2_cache_stats_breakdown[L2_WRBK_ACC][HIT] = 0
	L2_cache_stats_breakdown[L2_WRBK_ACC][HIT_RESERVED] = 0
	L2_cache_stats_breakdown[L2_WRBK_ACC][MISS] = 0
	L2_cache_stats_breakdown[L2_WRBK_ACC][RESERVATION_FAIL] = 0
	L2_cache_stats_breakdown[INST_ACC_R][HIT] = 30
	L2_cache_stats_breakdown[INST_ACC_R][HIT_RESERVED] = 132
	L2_cache_stats_breakdown[INST_ACC_R][MISS] = 6
	L2_cache_stats_breakdown[INST_ACC_R][RESERVATION_FAIL] = 0
	L2_cache_stats_breakdown[L1_WR_ALLOC_R][HIT] = 0
	L2_cache_stats_breakdown[L1_WR_ALLOC_R][HIT_RESERVED] = 0
	L2_cache_stats_breakdown[L1_WR_ALLOC_R][MISS] = 0
	L2_cache_stats_breakdown[L1_WR_ALLOC_R][RESERVATION_FAIL] = 0
	L2_cache_stats_breakdown[L2_WR_ALLOC_R][HIT] = 0
	L2_cache_stats_breakdown[L2_WR_ALLOC_R][HIT_RESERVED] = 0
	L2_cache_stats_breakdown[L2_WR_ALLOC_R][MISS] = 0
	L2_cache_stats_breakdown[L2_WR_ALLOC_R][RESERVATION_FAIL] = 0
	L2_cache_stats_breakdown[GLOBAL_ACC_R][TOTAL_ACCESS] = 27562
	L2_cache_stats_breakdown[CONST_ACC_R][TOTAL_ACCESS] = 28
	L2_cache_stats_breakdown[GLOBAL_ACC_W][TOTAL_ACCESS] = 27000
	L2_cache_stats_breakdown[INST_ACC_R][TOTAL_ACCESS] = 168
L2_cache_data_port_util = 0.008
L2_cache_fill_port_util = 0.006

icnt_total_pkts_mem_to_simt=117361
icnt_total_pkts_simt_to_mem=113257
LD_mem_lat_dist  0 0 0 0 0 0 0 0 0 0 0 0 0 0 0 0 0 0 0 0 0 0 0 0 0 0 0
ST_mem_lat_dist  0 0 0 0 0 0 0 0 0 0 0 0 0 0 0 0 0 0 0 0 0 0 0 0 0 0 0
----------------------------Interconnect-DETAILS--------------------------------
Class 0:
Packet latency average = 19.4079
	minimum = 6
	maximum = 124
Network latency average = 14.2813
	minimum = 6
	maximum = 107
Slowest packet = 27
Flit latency average = 13.6546
	minimum = 6
	maximum = 103
Slowest flit = 204901
Fragmentation average = 0.00016436
	minimum = 0
	maximum = 16
Injected packet rate average = 0.00365538
	minimum = 0.00307575 (at node 11)
	maximum = 0.00421225 (at node 41)
Accepted packet rate average = 0.00365538
	minimum = 0.00307575 (at node 11)
	maximum = 0.00421225 (at node 41)
Injected flit rate average = 0.00769748
	minimum = 0.00635009 (at node 11)
	maximum = 0.00911042 (at node 41)
Accepted flit rate average= 0.00769748
	minimum = 0.0066071 (at node 11)
	maximum = 0.00866316 (at node 41)
Injected packet length average = 2.10579
Accepted packet length average = 2.10579
Total in-flight flits = 0 (0 measured)
====== Overall Traffic Statistics ======
====== Traffic class 0 ======
Packet latency average = 19.4079 (1 samples)
	minimum = 6 (1 samples)
	maximum = 124 (1 samples)
Network latency average = 14.2813 (1 samples)
	minimum = 6 (1 samples)
	maximum = 107 (1 samples)
Flit latency average = 13.6546 (1 samples)
	minimum = 6 (1 samples)
	maximum = 103 (1 samples)
Fragmentation average = 0.00016436 (1 samples)
	minimum = 0 (1 samples)
	maximum = 16 (1 samples)
Injected packet rate average = 0.00365538 (1 samples)
	minimum = 0.00307575 (1 samples)
	maximum = 0.00421225 (1 samples)
Accepted packet rate average = 0.00365538 (1 samples)
	minimum = 0.00307575 (1 samples)
	maximum = 0.00421225 (1 samples)
Injected flit rate average = 0.00769748 (1 samples)
	minimum = 0.00635009 (1 samples)
	maximum = 0.00911042 (1 samples)
Accepted flit rate average = 0.00769748 (1 samples)
	minimum = 0.0066071 (1 samples)
	maximum = 0.00866316 (1 samples)
Injected packet size average = 2.10579 (1 samples)
Accepted packet size average = 2.10579 (1 samples)
Hops average = 1 (1 samples)
----------------------------END-of-Interconnect-DETAILS-------------------------


gpgpu_simulation_time = 0 days, 0 hrs, 21 min, 11 sec (1271 sec)
gpgpu_simulation_rate = 24302 (inst/sec)
gpgpu_simulation_rate = 410 (cycle/sec)
GPGPU-Sim: synchronize waiting for inactive GPU simulation
GPGPU-Sim API: Stream Manager State
GPGPU-Sim: detected inactive GPU simulation thread

GPGPU-Sim PTX: cudaLaunch for 0x0x402d5b (mode=performance simulation) on stream 0
GPGPU-Sim PTX: pushing kernel '_Z24bpnn_adjust_weights_cudaPfiS_iS_S_' to stream 0, gridDim= (1,1125,1) blockDim = (16,16,1) 
GPGPU-Sim uArch: Shader 13 bind to kernel 2 '_Z24bpnn_adjust_weights_cudaPfiS_iS_S_'
GPGPU-Sim uArch: CTA/core = 8, limited by: threads
GPGPU-Sim uArch: Shader 14 bind to kernel 2 '_Z24bpnn_adjust_weights_cudaPfiS_iS_S_'
GPGPU-Sim uArch: Shader 15 bind to kernel 2 '_Z24bpnn_adjust_weights_cudaPfiS_iS_S_'
GPGPU-Sim uArch: Shader 16 bind to kernel 2 '_Z24bpnn_adjust_weights_cudaPfiS_iS_S_'
GPGPU-Sim uArch: Shader 17 bind to kernel 2 '_Z24bpnn_adjust_weights_cudaPfiS_iS_S_'
GPGPU-Sim uArch: Shader 18 bind to kernel 2 '_Z24bpnn_adjust_weights_cudaPfiS_iS_S_'
GPGPU-Sim uArch: Shader 19 bind to kernel 2 '_Z24bpnn_adjust_weights_cudaPfiS_iS_S_'
GPGPU-Sim uArch: Shader 20 bind to kernel 2 '_Z24bpnn_adjust_weights_cudaPfiS_iS_S_'
GPGPU-Sim uArch: Shader 21 bind to kernel 2 '_Z24bpnn_adjust_weights_cudaPfiS_iS_S_'
GPGPU-Sim uArch: Shader 22 bind to kernel 2 '_Z24bpnn_adjust_weights_cudaPfiS_iS_S_'
GPGPU-Sim uArch: Shader 23 bind to kernel 2 '_Z24bpnn_adjust_weights_cudaPfiS_iS_S_'
GPGPU-Sim uArch: Shader 24 bind to kernel 2 '_Z24bpnn_adjust_weights_cudaPfiS_iS_S_'
GPGPU-Sim uArch: Shader 25 bind to kernel 2 '_Z24bpnn_adjust_weights_cudaPfiS_iS_S_'
GPGPU-Sim uArch: Shader 26 bind to kernel 2 '_Z24bpnn_adjust_weights_cudaPfiS_iS_S_'
GPGPU-Sim uArch: Shader 27 bind to kernel 2 '_Z24bpnn_adjust_weights_cudaPfiS_iS_S_'
GPGPU-Sim uArch: Shader 0 bind to kernel 2 '_Z24bpnn_adjust_weights_cudaPfiS_iS_S_'
GPGPU-Sim uArch: Shader 1 bind to kernel 2 '_Z24bpnn_adjust_weights_cudaPfiS_iS_S_'
GPGPU-Sim uArch: Shader 2 bind to kernel 2 '_Z24bpnn_adjust_weights_cudaPfiS_iS_S_'
GPGPU-Sim uArch: Shader 3 bind to kernel 2 '_Z24bpnn_adjust_weights_cudaPfiS_iS_S_'
GPGPU-Sim uArch: Shader 4 bind to kernel 2 '_Z24bpnn_adjust_weights_cudaPfiS_iS_S_'
GPGPU-Sim uArch: Shader 5 bind to kernel 2 '_Z24bpnn_adjust_weights_cudaPfiS_iS_S_'
GPGPU-Sim uArch: Shader 6 bind to kernel 2 '_Z24bpnn_adjust_weights_cudaPfiS_iS_S_'
GPGPU-Sim uArch: Shader 7 bind to kernel 2 '_Z24bpnn_adjust_weights_cudaPfiS_iS_S_'
GPGPU-Sim uArch: Shader 8 bind to kernel 2 '_Z24bpnn_adjust_weights_cudaPfiS_iS_S_'
GPGPU-Sim uArch: Shader 9 bind to kernel 2 '_Z24bpnn_adjust_weights_cudaPfiS_iS_S_'
GPGPU-Sim uArch: Shader 10 bind to kernel 2 '_Z24bpnn_adjust_weights_cudaPfiS_iS_S_'
GPGPU-Sim uArch: Shader 11 bind to kernel 2 '_Z24bpnn_adjust_weights_cudaPfiS_iS_S_'
GPGPU-Sim uArch: Shader 12 bind to kernel 2 '_Z24bpnn_adjust_weights_cudaPfiS_iS_S_'
Destroy streams for kernel 2: size 0
kernel_name = _Z24bpnn_adjust_weights_cudaPfiS_iS_S_ 
kernel_launch_uid = 2 
gpu_sim_cycle = 1573223
gpu_sim_insn = 15552352
gpu_ipc =       9.8857
gpu_tot_sim_cycle = 2485802
gpu_tot_sim_insn = 46440352
gpu_tot_ipc =      18.6822
gpu_tot_issued_cta = 2250
max_total_param_size = 0
gpu_stall_dramfull = 36128
gpu_stall_icnt2sh    = 58343
partiton_reqs_in_parallel = 34575285
partiton_reqs_in_parallel_total    = 6590759
partiton_level_parallism =      21.9774
partiton_level_parallism_total  =      16.5605
partiton_reqs_in_parallel_util = 34575285
partiton_reqs_in_parallel_util_total    = 6590759
gpu_sim_cycle_parition_util = 1573223
gpu_tot_sim_cycle_parition_util    = 299603
partiton_level_parallism_util =      21.9774
partiton_level_parallism_util_total  =      21.9807
partiton_replys_in_parallel = 127244
partiton_replys_in_parallel_total    = 54758
L2_BW  =       7.6662 GB/Sec
L2_BW_total  =       6.9398 GB/Sec
gpu_total_sim_rate=5947

========= Core cache stats =========
L1I_cache:
	L1I_total_cache_accesses = 894386
	L1I_total_cache_misses = 6595
	L1I_total_cache_miss_rate = 0.0074
	L1I_total_cache_pending_hits = 0
	L1I_total_cache_reservation_fails = 61381
L1D_cache:
	L1D_cache_core[0]: Access = 0, Miss = 0, Miss_rate = -nan, Pending_hits = 0, Reservation_fails = 0
	L1D_cache_core[1]: Access = 0, Miss = 0, Miss_rate = -nan, Pending_hits = 0, Reservation_fails = 0
	L1D_cache_core[2]: Access = 0, Miss = 0, Miss_rate = -nan, Pending_hits = 0, Reservation_fails = 0
	L1D_cache_core[3]: Access = 0, Miss = 0, Miss_rate = -nan, Pending_hits = 0, Reservation_fails = 0
	L1D_cache_core[4]: Access = 0, Miss = 0, Miss_rate = -nan, Pending_hits = 0, Reservation_fails = 0
	L1D_cache_core[5]: Access = 0, Miss = 0, Miss_rate = -nan, Pending_hits = 0, Reservation_fails = 0
	L1D_cache_core[6]: Access = 0, Miss = 0, Miss_rate = -nan, Pending_hits = 0, Reservation_fails = 0
	L1D_cache_core[7]: Access = 0, Miss = 0, Miss_rate = -nan, Pending_hits = 0, Reservation_fails = 0
	L1D_cache_core[8]: Access = 0, Miss = 0, Miss_rate = -nan, Pending_hits = 0, Reservation_fails = 0
	L1D_cache_core[9]: Access = 0, Miss = 0, Miss_rate = -nan, Pending_hits = 0, Reservation_fails = 0
	L1D_cache_core[10]: Access = 0, Miss = 0, Miss_rate = -nan, Pending_hits = 0, Reservation_fails = 0
	L1D_cache_core[11]: Access = 0, Miss = 0, Miss_rate = -nan, Pending_hits = 0, Reservation_fails = 0
	L1D_cache_core[12]: Access = 0, Miss = 0, Miss_rate = -nan, Pending_hits = 0, Reservation_fails = 0
	L1D_cache_core[13]: Access = 0, Miss = 0, Miss_rate = -nan, Pending_hits = 0, Reservation_fails = 0
	L1D_cache_core[14]: Access = 0, Miss = 0, Miss_rate = -nan, Pending_hits = 0, Reservation_fails = 0
	L1D_cache_core[15]: Access = 0, Miss = 0, Miss_rate = -nan, Pending_hits = 0, Reservation_fails = 0
	L1D_cache_core[16]: Access = 0, Miss = 0, Miss_rate = -nan, Pending_hits = 0, Reservation_fails = 0
	L1D_cache_core[17]: Access = 0, Miss = 0, Miss_rate = -nan, Pending_hits = 0, Reservation_fails = 0
	L1D_cache_core[18]: Access = 0, Miss = 0, Miss_rate = -nan, Pending_hits = 0, Reservation_fails = 0
	L1D_cache_core[19]: Access = 0, Miss = 0, Miss_rate = -nan, Pending_hits = 0, Reservation_fails = 0
	L1D_cache_core[20]: Access = 0, Miss = 0, Miss_rate = -nan, Pending_hits = 0, Reservation_fails = 0
	L1D_cache_core[21]: Access = 0, Miss = 0, Miss_rate = -nan, Pending_hits = 0, Reservation_fails = 0
	L1D_cache_core[22]: Access = 0, Miss = 0, Miss_rate = -nan, Pending_hits = 0, Reservation_fails = 0
	L1D_cache_core[23]: Access = 0, Miss = 0, Miss_rate = -nan, Pending_hits = 0, Reservation_fails = 0
	L1D_cache_core[24]: Access = 0, Miss = 0, Miss_rate = -nan, Pending_hits = 0, Reservation_fails = 0
	L1D_cache_core[25]: Access = 0, Miss = 0, Miss_rate = -nan, Pending_hits = 0, Reservation_fails = 0
	L1D_cache_core[26]: Access = 0, Miss = 0, Miss_rate = -nan, Pending_hits = 0, Reservation_fails = 0
	L1D_cache_core[27]: Access = 0, Miss = 0, Miss_rate = -nan, Pending_hits = 0, Reservation_fails = 0
	L1D_total_cache_accesses = 0
	L1D_total_cache_misses = 0
	L1D_total_cache_pending_hits = 0
	L1D_total_cache_reservation_fails = 0
	L1D_cache_data_port_util = 0.000
	L1D_cache_fill_port_util = 0.000
L1C_cache:
	L1C_total_cache_accesses = 81000
	L1C_total_cache_misses = 1792
	L1C_total_cache_miss_rate = 0.0221
	L1C_total_cache_pending_hits = 0
	L1C_total_cache_reservation_fails = 4886
L1T_cache:
	L1T_total_cache_accesses = 0
	L1T_total_cache_misses = 0
	L1T_total_cache_pending_hits = 0
	L1T_total_cache_reservation_fails = 0

Total_core_cache_stats:
	Total_core_cache_stats_breakdown[GLOBAL_ACC_R][HIT] = 0
	Total_core_cache_stats_breakdown[GLOBAL_ACC_R][HIT_RESERVED] = 0
	Total_core_cache_stats_breakdown[GLOBAL_ACC_R][MISS] = 0
	Total_core_cache_stats_breakdown[GLOBAL_ACC_R][RESERVATION_FAIL] = 0
	Total_core_cache_stats_breakdown[LOCAL_ACC_R][HIT] = 0
	Total_core_cache_stats_breakdown[LOCAL_ACC_R][HIT_RESERVED] = 0
	Total_core_cache_stats_breakdown[LOCAL_ACC_R][MISS] = 0
	Total_core_cache_stats_breakdown[LOCAL_ACC_R][RESERVATION_FAIL] = 0
	Total_core_cache_stats_breakdown[CONST_ACC_R][HIT] = 79208
	Total_core_cache_stats_breakdown[CONST_ACC_R][HIT_RESERVED] = 0
	Total_core_cache_stats_breakdown[CONST_ACC_R][MISS] = 1792
	Total_core_cache_stats_breakdown[CONST_ACC_R][RESERVATION_FAIL] = 4886
	Total_core_cache_stats_breakdown[TEXTURE_ACC_R][HIT] = 0
	Total_core_cache_stats_breakdown[TEXTURE_ACC_R][HIT_RESERVED] = 0
	Total_core_cache_stats_breakdown[TEXTURE_ACC_R][MISS] = 0
	Total_core_cache_stats_breakdown[TEXTURE_ACC_R][RESERVATION_FAIL] = 0
	Total_core_cache_stats_breakdown[GLOBAL_ACC_W][HIT] = 0
	Total_core_cache_stats_breakdown[GLOBAL_ACC_W][HIT_RESERVED] = 0
	Total_core_cache_stats_breakdown[GLOBAL_ACC_W][MISS] = 0
	Total_core_cache_stats_breakdown[GLOBAL_ACC_W][RESERVATION_FAIL] = 0
	Total_core_cache_stats_breakdown[LOCAL_ACC_W][HIT] = 0
	Total_core_cache_stats_breakdown[LOCAL_ACC_W][HIT_RESERVED] = 0
	Total_core_cache_stats_breakdown[LOCAL_ACC_W][MISS] = 0
	Total_core_cache_stats_breakdown[LOCAL_ACC_W][RESERVATION_FAIL] = 0
	Total_core_cache_stats_breakdown[L1_WRBK_ACC][HIT] = 0
	Total_core_cache_stats_breakdown[L1_WRBK_ACC][HIT_RESERVED] = 0
	Total_core_cache_stats_breakdown[L1_WRBK_ACC][MISS] = 0
	Total_core_cache_stats_breakdown[L1_WRBK_ACC][RESERVATION_FAIL] = 0
	Total_core_cache_stats_breakdown[L2_WRBK_ACC][HIT] = 0
	Total_core_cache_stats_breakdown[L2_WRBK_ACC][HIT_RESERVED] = 0
	Total_core_cache_stats_breakdown[L2_WRBK_ACC][MISS] = 0
	Total_core_cache_stats_breakdown[L2_WRBK_ACC][RESERVATION_FAIL] = 0
	Total_core_cache_stats_breakdown[INST_ACC_R][HIT] = 887791
	Total_core_cache_stats_breakdown[INST_ACC_R][HIT_RESERVED] = 0
	Total_core_cache_stats_breakdown[INST_ACC_R][MISS] = 6595
	Total_core_cache_stats_breakdown[INST_ACC_R][RESERVATION_FAIL] = 61381
	Total_core_cache_stats_breakdown[L1_WR_ALLOC_R][HIT] = 0
	Total_core_cache_stats_breakdown[L1_WR_ALLOC_R][HIT_RESERVED] = 0
	Total_core_cache_stats_breakdown[L1_WR_ALLOC_R][MISS] = 0
	Total_core_cache_stats_breakdown[L1_WR_ALLOC_R][RESERVATION_FAIL] = 0
	Total_core_cache_stats_breakdown[L2_WR_ALLOC_R][HIT] = 0
	Total_core_cache_stats_breakdown[L2_WR_ALLOC_R][HIT_RESERVED] = 0
	Total_core_cache_stats_breakdown[L2_WR_ALLOC_R][MISS] = 0
	Total_core_cache_stats_breakdown[L2_WR_ALLOC_R][RESERVATION_FAIL] = 0
	Total_core_cache_stats_breakdown[CONST_ACC_R][TOTAL_ACCESS] = 81000
	Total_core_cache_stats_breakdown[INST_ACC_R][TOTAL_ACCESS] = 894386
Shader 0 warp_id issue ditsribution:
warp_id:
0, 1, 2, 3, 4, 5, 6, 7, 8, 9, 10, 11, 12, 13, 14, 15, 16, 17, 18, 19, 20, 21, 22, 23, 24, 25, 26, 27, 28, 29, 30, 31, 32, 33, 34, 35, 36, 37, 38, 39, 40, 41, 42, 43, 44, 45, 46, 47, 48, 49, 50, 51, 52, 53, 54, 55, 56, 57, 58, 59, 60, 61, 62, 63, 
distro:
[...]
F:  2125290----T:  2127895 	 St: 8058d000 Sz: 4096 	 Sm: 0 	 T: memcpy_h2d(1.758947)
F:  2126856----T:  2129461 	 St: 806cb000 Sz: 4096 	 Sm: 0 	 T: write_back(1.758947)
F:  2127895----T:  2130500 	 St: 8058e000 Sz: 4096 	 Sm: 0 	 T: memcpy_h2d(1.758947)
F:  2129461----T:  2132066 	 St: 804b5000 Sz: 4096 	 Sm: 0 	 T: write_back(1.758947)
F:  2130500----T:  2133105 	 St: 8058f000 Sz: 4096 	 Sm: 0 	 T: memcpy_h2d(1.758947)
F:  2132066----T:  2134671 	 St: 806c5000 Sz: 4096 	 Sm: 0 	 T: write_back(1.758947)
F:  2133105----T:  2135710 	 St: 80590000 Sz: 4096 	 Sm: 0 	 T: memcpy_h2d(1.758947)
F:  2134671----T:  2137276 	 St: 804b6000 Sz: 4096 	 Sm: 0 	 T: write_back(1.758947)
F:  2135710----T:  2138315 	 St: 80591000 Sz: 4096 	 Sm: 0 	 T: memcpy_h2d(1.758947)
F:  2137276----T:  2139881 	 St: 806c6000 Sz: 4096 	 Sm: 0 	 T: write_back(1.758947)
F:  2138315----T:  2140920 	 St: 80592000 Sz: 4096 	 Sm: 0 	 T: memcpy_h2d(1.758947)
F:  2139881----T:  2142486 	 St: 804c3000 Sz: 4096 	 Sm: 0 	 T: write_back(1.758947)
F:  2140920----T:  2143525 	 St: 80593000 Sz: 4096 	 Sm: 0 	 T: memcpy_h2d(1.758947)
F:  2142486----T:  2145091 	 St: 806d3000 Sz: 4096 	 Sm: 0 	 T: write_back(1.758947)
F:  2143525----T:  2146130 	 St: 80594000 Sz: 4096 	 Sm: 0 	 T: memcpy_h2d(1.758947)
F:  2145091----T:  2147696 	 St: 804bd000 Sz: 4096 	 Sm: 0 	 T: write_back(1.758947)
F:  2146130----T:  2148735 	 St: 80595000 Sz: 4096 	 Sm: 0 	 T: memcpy_h2d(1.758947)
F:  2147696----T:  2150301 	 St: 806cd000 Sz: 4096 	 Sm: 0 	 T: write_back(1.758947)
F:  2148735----T:  2151340 	 St: 80596000 Sz: 4096 	 Sm: 0 	 T: memcpy_h2d(1.758947)
F:  2150301----T:  2152906 	 St: 804c4000 Sz: 4096 	 Sm: 0 	 T: write_back(1.758947)
F:  2151340----T:  2153945 	 St: 80597000 Sz: 4096 	 Sm: 0 	 T: memcpy_h2d(1.758947)
F:  2153945----T:  2156550 	 St: 80598000 Sz: 4096 	 Sm: 0 	 T: memcpy_h2d(1.758947)
F:  2156550----T:  2159155 	 St: 80599000 Sz: 4096 	 Sm: 0 	 T: memcpy_h2d(1.758947)
F:  2159155----T:  2161760 	 St: 8059a000 Sz: 4096 	 Sm: 0 	 T: memcpy_h2d(1.758947)
F:  2161760----T:  2164365 	 St: 8059b000 Sz: 4096 	 Sm: 0 	 T: memcpy_h2d(1.758947)
F:  2164365----T:  2166970 	 St: 8059c000 Sz: 4096 	 Sm: 0 	 T: memcpy_h2d(1.758947)
F:  2166970----T:  2169575 	 St: 8059d000 Sz: 4096 	 Sm: 0 	 T: memcpy_h2d(1.758947)
F:  2169575----T:  2172180 	 St: 8059e000 Sz: 4096 	 Sm: 0 	 T: memcpy_h2d(1.758947)
F:  2172180----T:  2174785 	 St: 8059f000 Sz: 4096 	 Sm: 0 	 T: memcpy_h2d(1.758947)
F:  2174785----T:  2177390 	 St: 807b0000 Sz: 4096 	 Sm: 0 	 T: memcpy_h2d(1.758947)
F:  2177390----T:  2179995 	 St: 807b1000 Sz: 4096 	 Sm: 0 	 T: memcpy_h2d(1.758947)
F:  2177793----T:  2180398 	 St: 806d4000 Sz: 4096 	 Sm: 0 	 T: write_back(1.758947)
F:  2179995----T:  2182600 	 St: 807b2000 Sz: 4096 	 Sm: 0 	 T: memcpy_h2d(1.758947)
F:  2180398----T:  2183003 	 St: 804b7000 Sz: 4096 	 Sm: 0 	 T: write_back(1.758947)
F:  2182600----T:  2185205 	 St: 807b3000 Sz: 4096 	 Sm: 0 	 T: memcpy_h2d(1.758947)
F:  2183003----T:  2185608 	 St: 806c7000 Sz: 4096 	 Sm: 0 	 T: write_back(1.758947)
F:  2185205----T:  2187810 	 St: 807b4000 Sz: 4096 	 Sm: 0 	 T: memcpy_h2d(1.758947)
F:  2185608----T:  2188213 	 St: 804ca000 Sz: 4096 	 Sm: 0 	 T: write_back(1.758947)
F:  2187810----T:  2190415 	 St: 807b5000 Sz: 4096 	 Sm: 0 	 T: memcpy_h2d(1.758947)
F:  2188213----T:  2190818 	 St: 806da000 Sz: 4096 	 Sm: 0 	 T: write_back(1.758947)
F:  2190415----T:  2193020 	 St: 807b6000 Sz: 4096 	 Sm: 0 	 T: memcpy_h2d(1.758947)
F:  2190818----T:  2193423 	 St: 804cb000 Sz: 4096 	 Sm: 0 	 T: write_back(1.758947)
F:  2193020----T:  2195625 	 St: 807b7000 Sz: 4096 	 Sm: 0 	 T: memcpy_h2d(1.758947)
F:  2193423----T:  2196028 	 St: 804cd000 Sz: 4096 	 Sm: 0 	 T: write_back(1.758947)
F:  2195625----T:  2198230 	 St: 807b8000 Sz: 4096 	 Sm: 0 	 T: memcpy_h2d(1.758947)
F:  2196028----T:  2198633 	 St: 804cc000 Sz: 4096 	 Sm: 0 	 T: write_back(1.758947)
F:  2198230----T:  2200835 	 St: 807b9000 Sz: 4096 	 Sm: 0 	 T: memcpy_h2d(1.758947)
F:  2198633----T:  2201238 	 St: 806db000 Sz: 4096 	 Sm: 0 	 T: write_back(1.758947)
F:  2200835----T:  2203440 	 St: 807ba000 Sz: 4096 	 Sm: 0 	 T: memcpy_h2d(1.758947)
F:  2201238----T:  2203843 	 St: 806dd000 Sz: 4096 	 Sm: 0 	 T: write_back(1.758947)
F:  2203440----T:  2206045 	 St: 807bb000 Sz: 4096 	 Sm: 0 	 T: memcpy_h2d(1.758947)
F:  2203843----T:  2206448 	 St: 806dc000 Sz: 4096 	 Sm: 0 	 T: write_back(1.758947)
F:  2206045----T:  2208650 	 St: 807bc000 Sz: 4096 	 Sm: 0 	 T: memcpy_h2d(1.758947)
F:  2206448----T:  2209053 	 St: 804be000 Sz: 4096 	 Sm: 0 	 T: write_back(1.758947)
F:  2208650----T:  2211255 	 St: 807bd000 Sz: 4096 	 Sm: 0 	 T: memcpy_h2d(1.758947)
F:  2209053----T:  2211658 	 St: 806ce000 Sz: 4096 	 Sm: 0 	 T: write_back(1.758947)
F:  2211255----T:  2213860 	 St: 807be000 Sz: 4096 	 Sm: 0 	 T: memcpy_h2d(1.758947)
F:  2211658----T:  2214263 	 St: 804d2000 Sz: 4096 	 Sm: 0 	 T: write_back(1.758947)
F:  2213860----T:  2216465 	 St: 807bf000 Sz: 4096 	 Sm: 0 	 T: memcpy_h2d(1.758947)
F:  2214263----T:  2216868 	 St: 806e2000 Sz: 4096 	 Sm: 0 	 T: write_back(1.758947)
F:  2216465----T:  2219070 	 St: 807c0000 Sz: 4096 	 Sm: 0 	 T: memcpy_h2d(1.758947)
F:  2216868----T:  2219473 	 St: 804d9000 Sz: 4096 	 Sm: 0 	 T: write_back(1.758947)
F:  2219070----T:  2221675 	 St: 807c1000 Sz: 4096 	 Sm: 0 	 T: memcpy_h2d(1.758947)
F:  2219473----T:  2222078 	 St: 806e9000 Sz: 4096 	 Sm: 0 	 T: write_back(1.758947)
F:  2221675----T:  2224280 	 St: 807c2000 Sz: 4096 	 Sm: 0 	 T: memcpy_h2d(1.758947)
F:  2222079----T:  2224684 	 St: 804b0000 Sz: 4096 	 Sm: 0 	 T: write_back(1.758947)
F:  2224280----T:  2226885 	 St: 807c3000 Sz: 4096 	 Sm: 0 	 T: memcpy_h2d(1.758947)
F:  2224684----T:  2227289 	 St: 806c0000 Sz: 4096 	 Sm: 0 	 T: write_back(1.758947)
F:  2226885----T:  2229490 	 St: 807c4000 Sz: 4096 	 Sm: 0 	 T: memcpy_h2d(1.758947)
F:  2227289----T:  2229894 	 St: 804d8000 Sz: 4096 	 Sm: 0 	 T: write_back(1.758947)
F:  2229490----T:  2232095 	 St: 807c5000 Sz: 4096 	 Sm: 0 	 T: memcpy_h2d(1.758947)
F:  2229894----T:  2232499 	 St: 804d7000 Sz: 4096 	 Sm: 0 	 T: write_back(1.758947)
F:  2232095----T:  2234700 	 St: 807c6000 Sz: 4096 	 Sm: 0 	 T: memcpy_h2d(1.758947)
F:  2232499----T:  2235104 	 St: 806e8000 Sz: 4096 	 Sm: 0 	 T: write_back(1.758947)
F:  2234700----T:  2237305 	 St: 807c7000 Sz: 4096 	 Sm: 0 	 T: memcpy_h2d(1.758947)
F:  2235104----T:  2237709 	 St: 806e7000 Sz: 4096 	 Sm: 0 	 T: write_back(1.758947)
F:  2237305----T:  2239910 	 St: 807c8000 Sz: 4096 	 Sm: 0 	 T: memcpy_h2d(1.758947)
F:  2237709----T:  2240314 	 St: 804c5000 Sz: 4096 	 Sm: 0 	 T: write_back(1.758947)
F:  2239910----T:  2242515 	 St: 807c9000 Sz: 4096 	 Sm: 0 	 T: memcpy_h2d(1.758947)
F:  2240314----T:  2242919 	 St: 806d5000 Sz: 4096 	 Sm: 0 	 T: write_back(1.758947)
F:  2242515----T:  2245120 	 St: 807ca000 Sz: 4096 	 Sm: 0 	 T: memcpy_h2d(1.758947)
F:  2242919----T:  2245524 	 St: 804d1000 Sz: 4096 	 Sm: 0 	 T: write_back(1.758947)
F:  2245120----T:  2247725 	 St: 807cb000 Sz: 4096 	 Sm: 0 	 T: memcpy_h2d(1.758947)
F:  2245524----T:  2248129 	 St: 804d0000 Sz: 4096 	 Sm: 0 	 T: write_back(1.758947)
F:  2247725----T:  2250330 	 St: 807cc000 Sz: 4096 	 Sm: 0 	 T: memcpy_h2d(1.758947)
F:  2248129----T:  2250734 	 St: 806e1000 Sz: 4096 	 Sm: 0 	 T: write_back(1.758947)
F:  2250330----T:  2252935 	 St: 807cd000 Sz: 4096 	 Sm: 0 	 T: memcpy_h2d(1.758947)
F:  2250734----T:  2253339 	 St: 806e0000 Sz: 4096 	 Sm: 0 	 T: write_back(1.758947)
F:  2252935----T:  2255540 	 St: 807ce000 Sz: 4096 	 Sm: 0 	 T: memcpy_h2d(1.758947)
F:  2253339----T:  2255944 	 St: 804c2000 Sz: 4096 	 Sm: 0 	 T: write_back(1.758947)
F:  2255540----T:  2258145 	 St: 807cf000 Sz: 4096 	 Sm: 0 	 T: memcpy_h2d(1.758947)
F:  2255944----T:  2258549 	 St: 806d2000 Sz: 4096 	 Sm: 0 	 T: write_back(1.758947)
F:  2258145----T:  2260750 	 St: 807d0000 Sz: 4096 	 Sm: 0 	 T: memcpy_h2d(1.758947)
F:  2258549----T:  2261154 	 St: 804b1000 Sz: 4096 	 Sm: 0 	 T: write_back(1.758947)
F:  2260750----T:  2263355 	 St: 807d1000 Sz: 4096 	 Sm: 0 	 T: memcpy_h2d(1.758947)
F:  2261154----T:  2263759 	 St: 804b3000 Sz: 4096 	 Sm: 0 	 T: write_back(1.758947)
F:  2263355----T:  2265960 	 St: 807d2000 Sz: 4096 	 Sm: 0 	 T: memcpy_h2d(1.758947)
F:  2263759----T:  2266364 	 St: 804b2000 Sz: 4096 	 Sm: 0 	 T: write_back(1.758947)
F:  2265960----T:  2268565 	 St: 807d3000 Sz: 4096 	 Sm: 0 	 T: memcpy_h2d(1.758947)
F:  2266364----T:  2268969 	 St: 806c1000 Sz: 4096 	 Sm: 0 	 T: write_back(1.758947)
F:  2268565----T:  2271170 	 St: 807d4000 Sz: 4096 	 Sm: 0 	 T: memcpy_h2d(1.758947)
F:  2268969----T:  2271574 	 St: 806c3000 Sz: 4096 	 Sm: 0 	 T: write_back(1.758947)
F:  2271170----T:  2273775 	 St: 807d5000 Sz: 4096 	 Sm: 0 	 T: memcpy_h2d(1.758947)
F:  2271574----T:  2274179 	 St: 806c2000 Sz: 4096 	 Sm: 0 	 T: write_back(1.758947)
F:  2273775----T:  2276380 	 St: 807d6000 Sz: 4096 	 Sm: 0 	 T: memcpy_h2d(1.758947)
F:  2274179----T:  2276784 	 St: 804d3000 Sz: 4096 	 Sm: 0 	 T: write_back(1.758947)
F:  2276380----T:  2278985 	 St: 807d7000 Sz: 4096 	 Sm: 0 	 T: memcpy_h2d(1.758947)
F:  2276784----T:  2279389 	 St: 806e3000 Sz: 4096 	 Sm: 0 	 T: write_back(1.758947)
F:  2278985----T:  2281590 	 St: 807d8000 Sz: 4096 	 Sm: 0 	 T: memcpy_h2d(1.758947)
F:  2279389----T:  2281994 	 St: 804b8000 Sz: 4096 	 Sm: 0 	 T: write_back(1.758947)
F:  2281590----T:  2284195 	 St: 807d9000 Sz: 4096 	 Sm: 0 	 T: memcpy_h2d(1.758947)
F:  2281994----T:  2284599 	 St: 804ba000 Sz: 4096 	 Sm: 0 	 T: write_back(1.758947)
F:  2284195----T:  2286800 	 St: 807da000 Sz: 4096 	 Sm: 0 	 T: memcpy_h2d(1.758947)
F:  2284599----T:  2287204 	 St: 804b9000 Sz: 4096 	 Sm: 0 	 T: write_back(1.758947)
F:  2286800----T:  2289405 	 St: 807db000 Sz: 4096 	 Sm: 0 	 T: memcpy_h2d(1.758947)
F:  2287204----T:  2289809 	 St: 806c8000 Sz: 4096 	 Sm: 0 	 T: write_back(1.758947)
F:  2289405----T:  2292010 	 St: 807dc000 Sz: 4096 	 Sm: 0 	 T: memcpy_h2d(1.758947)
F:  2289809----T:  2292414 	 St: 806ca000 Sz: 4096 	 Sm: 0 	 T: write_back(1.758947)
F:  2292010----T:  2294615 	 St: 807dd000 Sz: 4096 	 Sm: 0 	 T: memcpy_h2d(1.758947)
F:  2292414----T:  2295019 	 St: 806c9000 Sz: 4096 	 Sm: 0 	 T: write_back(1.758947)
F:  2294615----T:  2297220 	 St: 807de000 Sz: 4096 	 Sm: 0 	 T: memcpy_h2d(1.758947)
F:  2295019----T:  2297624 	 St: 804c6000 Sz: 4096 	 Sm: 0 	 T: write_back(1.758947)
F:  2297220----T:  2299825 	 St: 807df000 Sz: 4096 	 Sm: 0 	 T: memcpy_h2d(1.758947)
F:  2297624----T:  2300229 	 St: 806d6000 Sz: 4096 	 Sm: 0 	 T: write_back(1.758947)
F:  2299825----T:  2302430 	 St: 807e0000 Sz: 4096 	 Sm: 0 	 T: memcpy_h2d(1.758947)
F:  2300229----T:  2302834 	 St: 804da000 Sz: 4096 	 Sm: 0 	 T: write_back(1.758947)
F:  2302430----T:  2305035 	 St: 80251000 Sz: 4096 	 Sm: 0 	 T: memcpy_h2d(1.758947)
F:  2302834----T:  2305439 	 St: 806ea000 Sz: 4096 	 Sm: 0 	 T: write_back(1.758947)
F:  2305035----T:  2307640 	 St: 805a0000 Sz: 4096 	 Sm: 0 	 T: memcpy_h2d(1.758947)
F:  2305439----T:  2308044 	 St: 804cf000 Sz: 4096 	 Sm: 0 	 T: write_back(1.758947)
F:  2307640----T:  2310245 	 St: 805a1000 Sz: 4096 	 Sm: 0 	 T: memcpy_h2d(1.758947)
F:  2308044----T:  2310649 	 St: 804ce000 Sz: 4096 	 Sm: 0 	 T: write_back(1.758947)
F:  2310245----T:  2312850 	 St: 805a2000 Sz: 4096 	 Sm: 0 	 T: memcpy_h2d(1.758947)
F:  2310649----T:  2313254 	 St: 806df000 Sz: 4096 	 Sm: 0 	 T: write_back(1.758947)
F:  2312850----T:  2315455 	 St: 805a3000 Sz: 4096 	 Sm: 0 	 T: memcpy_h2d(1.758947)
F:  2313254----T:  2315859 	 St: 806de000 Sz: 4096 	 Sm: 0 	 T: write_back(1.758947)
F:  2315455----T:  2318060 	 St: 805a4000 Sz: 4096 	 Sm: 0 	 T: memcpy_h2d(1.758947)
F:  2315859----T:  2318464 	 St: 804bf000 Sz: 4096 	 Sm: 0 	 T: write_back(1.758947)
F:  2318060----T:  2320665 	 St: 805a5000 Sz: 4096 	 Sm: 0 	 T: memcpy_h2d(1.758947)
F:  2318464----T:  2321069 	 St: 804c0000 Sz: 4096 	 Sm: 0 	 T: write_back(1.758947)
F:  2320665----T:  2323270 	 St: 805a6000 Sz: 4096 	 Sm: 0 	 T: memcpy_h2d(1.758947)
F:  2321069----T:  2323674 	 St: 804c1000 Sz: 4096 	 Sm: 0 	 T: write_back(1.758947)
F:  2323270----T:  2325875 	 St: 805a7000 Sz: 4096 	 Sm: 0 	 T: memcpy_h2d(1.758947)
F:  2323674----T:  2326279 	 St: 806cf000 Sz: 4096 	 Sm: 0 	 T: write_back(1.758947)
F:  2325875----T:  2328480 	 St: 805a8000 Sz: 4096 	 Sm: 0 	 T: memcpy_h2d(1.758947)
F:  2326279----T:  2328884 	 St: 806d1000 Sz: 4096 	 Sm: 0 	 T: write_back(1.758947)
F:  2328480----T:  2331085 	 St: 805a9000 Sz: 4096 	 Sm: 0 	 T: memcpy_h2d(1.758947)
F:  2331085----T:  2333690 	 St: 805aa000 Sz: 4096 	 Sm: 0 	 T: memcpy_h2d(1.758947)
F:  2333690----T:  2336295 	 St: 805ab000 Sz: 4096 	 Sm: 0 	 T: memcpy_h2d(1.758947)
F:  2336295----T:  2338900 	 St: 805ac000 Sz: 4096 	 Sm: 0 	 T: memcpy_h2d(1.758947)
F:  2338900----T:  2341505 	 St: 805ad000 Sz: 4096 	 Sm: 0 	 T: memcpy_h2d(1.758947)
F:  2341505----T:  2344110 	 St: 805ae000 Sz: 4096 	 Sm: 0 	 T: memcpy_h2d(1.758947)
F:  2344110----T:  2346715 	 St: 805af000 Sz: 4096 	 Sm: 0 	 T: memcpy_h2d(1.758947)
F:  2346715----T:  2349320 	 St: 805b0000 Sz: 4096 	 Sm: 0 	 T: memcpy_h2d(1.758947)
F:  2349320----T:  2351925 	 St: 805b1000 Sz: 4096 	 Sm: 0 	 T: memcpy_h2d(1.758947)
F:  2351925----T:  2354530 	 St: 805b2000 Sz: 4096 	 Sm: 0 	 T: memcpy_h2d(1.758947)
F:  2354530----T:  2357135 	 St: 805b3000 Sz: 4096 	 Sm: 0 	 T: memcpy_h2d(1.758947)
F:  2357135----T:  2359740 	 St: 805b4000 Sz: 4096 	 Sm: 0 	 T: memcpy_h2d(1.758947)
F:  2359740----T:  2362345 	 St: 805b5000 Sz: 4096 	 Sm: 0 	 T: memcpy_h2d(1.758947)
F:  2362345----T:  2364950 	 St: 805b6000 Sz: 4096 	 Sm: 0 	 T: memcpy_h2d(1.758947)
F:  2364950----T:  2367555 	 St: 805b7000 Sz: 4096 	 Sm: 0 	 T: memcpy_h2d(1.758947)
F:  2367555----T:  2370160 	 St: 805b8000 Sz: 4096 	 Sm: 0 	 T: memcpy_h2d(1.758947)
F:  2370160----T:  2372765 	 St: 805b9000 Sz: 4096 	 Sm: 0 	 T: memcpy_h2d(1.758947)
F:  2372765----T:  2375370 	 St: 805ba000 Sz: 4096 	 Sm: 0 	 T: memcpy_h2d(1.758947)
F:  2375370----T:  2377975 	 St: 805bb000 Sz: 4096 	 Sm: 0 	 T: memcpy_h2d(1.758947)
F:  2377975----T:  2380580 	 St: 805bc000 Sz: 4096 	 Sm: 0 	 T: memcpy_h2d(1.758947)
F:  2380580----T:  2383185 	 St: 805bd000 Sz: 4096 	 Sm: 0 	 T: memcpy_h2d(1.758947)
F:  2383185----T:  2385790 	 St: 805be000 Sz: 4096 	 Sm: 0 	 T: memcpy_h2d(1.758947)
F:  2385790----T:  2388395 	 St: 805bf000 Sz: 4096 	 Sm: 0 	 T: memcpy_h2d(1.758947)
F:  2388395----T:  2391000 	 St: 805c0000 Sz: 4096 	 Sm: 0 	 T: memcpy_h2d(1.758947)
F:  2391000----T:  2393605 	 St: 805c1000 Sz: 4096 	 Sm: 0 	 T: memcpy_h2d(1.758947)
F:  2393605----T:  2396210 	 St: 805c2000 Sz: 4096 	 Sm: 0 	 T: memcpy_h2d(1.758947)
F:  2396210----T:  2398815 	 St: 805c3000 Sz: 4096 	 Sm: 0 	 T: memcpy_h2d(1.758947)
F:  2398815----T:  2401420 	 St: 805c4000 Sz: 4096 	 Sm: 0 	 T: memcpy_h2d(1.758947)
F:  2401420----T:  2404025 	 St: 805c5000 Sz: 4096 	 Sm: 0 	 T: memcpy_h2d(1.758947)
F:  2404025----T:  2406630 	 St: 805c6000 Sz: 4096 	 Sm: 0 	 T: memcpy_h2d(1.758947)
F:  2406630----T:  2409235 	 St: 805c7000 Sz: 4096 	 Sm: 0 	 T: memcpy_h2d(1.758947)
F:  2409235----T:  2411840 	 St: 805c8000 Sz: 4096 	 Sm: 0 	 T: memcpy_h2d(1.758947)
F:  2411840----T:  2414445 	 St: 805c9000 Sz: 4096 	 Sm: 0 	 T: memcpy_h2d(1.758947)
F:  2414445----T:  2417050 	 St: 805ca000 Sz: 4096 	 Sm: 0 	 T: memcpy_h2d(1.758947)
F:  2417050----T:  2419655 	 St: 805cb000 Sz: 4096 	 Sm: 0 	 T: memcpy_h2d(1.758947)
F:  2419655----T:  2422260 	 St: 805cc000 Sz: 4096 	 Sm: 0 	 T: memcpy_h2d(1.758947)
F:  2422260----T:  2424865 	 St: 805cd000 Sz: 4096 	 Sm: 0 	 T: memcpy_h2d(1.758947)
F:  2424865----T:  2427470 	 St: 805ce000 Sz: 4096 	 Sm: 0 	 T: memcpy_h2d(1.758947)
F:  2427470----T:  2430075 	 St: 805cf000 Sz: 4096 	 Sm: 0 	 T: memcpy_h2d(1.758947)
F:  2430075----T:  2432680 	 St: 805d0000 Sz: 4096 	 Sm: 0 	 T: memcpy_h2d(1.758947)
F:  2432680----T:  2435285 	 St: 807e9000 Sz: 4096 	 Sm: 0 	 T: memcpy_h2d(1.758947)
F:  2435285----T:  2437890 	 St: 807ea000 Sz: 4096 	 Sm: 0 	 T: memcpy_h2d(1.758947)
F:  2435691----T:  2438296 	 St: 806d0000 Sz: 4096 	 Sm: 0 	 T: write_back(1.758947)
F:  2437890----T:  2440495 	 St: 807e5000 Sz: 4096 	 Sm: 0 	 T: memcpy_h2d(1.758947)
F:  2438296----T:  2440901 	 St: 804d4000 Sz: 4096 	 Sm: 0 	 T: write_back(1.758947)
F:  2440495----T:  2443100 	 St: 807e6000 Sz: 4096 	 Sm: 0 	 T: memcpy_h2d(1.758947)
F:  2440901----T:  2443506 	 St: 804d6000 Sz: 4096 	 Sm: 0 	 T: write_back(1.758947)
F:  2443100----T:  2445705 	 St: 807e8000 Sz: 4096 	 Sm: 0 	 T: memcpy_h2d(1.758947)
F:  2443506----T:  2446111 	 St: 804d5000 Sz: 4096 	 Sm: 0 	 T: write_back(1.758947)
F:  2445705----T:  2448310 	 St: 807e2000 Sz: 4096 	 Sm: 0 	 T: memcpy_h2d(1.758947)
F:  2446113----T:  2448718 	 St: 806e4000 Sz: 4096 	 Sm: 0 	 T: write_back(1.758947)
F:  2448310----T:  2450915 	 St: 807e4000 Sz: 4096 	 Sm: 0 	 T: memcpy_h2d(1.758947)
F:  2448718----T:  2451323 	 St: 806e6000 Sz: 4096 	 Sm: 0 	 T: write_back(1.758947)
F:  2450915----T:  2453520 	 St: 807e1000 Sz: 4096 	 Sm: 0 	 T: memcpy_h2d(1.758947)
F:  2451323----T:  2453928 	 St: 806e5000 Sz: 4096 	 Sm: 0 	 T: write_back(1.758947)
F:  2453520----T:  2456125 	 St: 807e3000 Sz: 4096 	 Sm: 0 	 T: memcpy_h2d(1.758947)
F:  2453928----T:  2456533 	 St: 804e1000 Sz: 4096 	 Sm: 0 	 T: write_back(1.758947)
F:  2456125----T:  2458730 	 St: 807e7000 Sz: 4096 	 Sm: 0 	 T: memcpy_h2d(1.758947)
F:  2456533----T:  2459138 	 St: 806f1000 Sz: 4096 	 Sm: 0 	 T: write_back(1.758947)
F:  2458730----T:  2461335 	 St: 805d9000 Sz: 4096 	 Sm: 0 	 T: memcpy_h2d(1.758947)
F:  2459138----T:  2461743 	 St: 804db000 Sz: 4096 	 Sm: 0 	 T: write_back(1.758947)
F:  2461335----T:  2463940 	 St: 805da000 Sz: 4096 	 Sm: 0 	 T: memcpy_h2d(1.758947)
F:  2463940----T:  2466545 	 St: 805d5000 Sz: 4096 	 Sm: 0 	 T: memcpy_h2d(1.758947)
F:  2466545----T:  2469150 	 St: 805d6000 Sz: 4096 	 Sm: 0 	 T: memcpy_h2d(1.758947)
F:  2469150----T:  2471755 	 St: 805d8000 Sz: 4096 	 Sm: 0 	 T: memcpy_h2d(1.758947)
F:  2471755----T:  2474360 	 St: 805d2000 Sz: 4096 	 Sm: 0 	 T: memcpy_h2d(1.758947)
F:  2474360----T:  2476965 	 St: 805d4000 Sz: 4096 	 Sm: 0 	 T: memcpy_h2d(1.758947)
F:  2476965----T:  2479570 	 St: 805d1000 Sz: 4096 	 Sm: 0 	 T: memcpy_h2d(1.758947)
F:  2479570----T:  2482175 	 St: 805d3000 Sz: 4096 	 Sm: 0 	 T: memcpy_h2d(1.758947)
F:  2482175----T:  2484780 	 St: 805d7000 Sz: 4096 	 Sm: 0 	 T: memcpy_h2d(1.758947)
F:  2485802----T:  2488407 	 St: 0 Sz: 4096 	 Sm: 0 	 T: device_sync(1.758947)
F:  2485802----T:  2494042 	 St: 0 Sz: 61440 	 Sm: 0 	 T: device_sync(5.563808)
F:  2496647----T:  2499252 	 St: 0 Sz: 4096 	 Sm: 0 	 T: device_sync(1.758947)
F:  2496647----T:  2504887 	 St: 0 Sz: 61440 	 Sm: 0 	 T: device_sync(5.563808)
F:  2507492----T:  2510097 	 St: 0 Sz: 4096 	 Sm: 0 	 T: device_sync(1.758947)
F:  2507492----T:  2523187 	 St: 0 Sz: 126976 	 Sm: 0 	 T: device_sync(10.597569)
F:  2525792----T:  2528397 	 St: 0 Sz: 4096 	 Sm: 0 	 T: device_sync(1.758947)
F:  2525792----T:  2556515 	 St: 0 Sz: 258048 	 Sm: 0 	 T: device_sync(20.744766)
F:  2559120----T:  2561725 	 St: 0 Sz: 4096 	 Sm: 0 	 T: device_sync(1.758947)
F:  2559120----T:  2619956 	 St: 0 Sz: 520192 	 Sm: 0 	 T: device_sync(41.077652)
F:  2622561----T:  2625166 	 St: 0 Sz: 4096 	 Sm: 0 	 T: device_sync(1.758947)
F:  2622561----T:  2743650 	 St: 0 Sz: 1044480 	 Sm: 0 	 T: device_sync(81.761650)
F:  2746255----T:  2748860 	 St: 0 Sz: 4096 	 Sm: 0 	 T: device_sync(1.758947)
F:  2746255----T:  2749055 	 St: 0 Sz: 8192 	 Sm: 0 	 T: device_sync(1.890614)
Tot_prefetch_time: 0(cycle), 0.000000(us)
Tot_kernel_exec_time: 1872826(cycle), 1264.568481(us)
Tot_kernel_exec_time_and_fault_time: 45392011(cycle), 30649.568359(us)
Tot_memcpy_h2d_time: 1848898(cycle), 1248.411865(us)
Tot_memcpy_d2h_time: 0(cycle), 0.000000(us)
Tot_memcpy_time: 1848898(cycle), 1248.411865(us)
Tot_devicesync_time: 434534(cycle), 293.405792(us)
Tot_writeback_time: 216215(cycle), 145.992569(us)
Tot_memcpy_d2h_sync_wb_time: 650749(cycle), 439.398376(us)
GPGPU-Sim: *** exit detected ***
