

        *** GPGPU-Sim Simulator Version 3.2.2  [build gpgpu-sim_git-commit-1c1adf09f9d1bccf70ff97255c2b46b40ff0e800_modified_0] ***


GPGPU-Sim PTX: simulation mode 0 (can change with PTX_SIM_MODE_FUNC environment variable:
               1=functional simulation only, 0=detailed performance simulator)
GPGPU-Sim: Configuration options:

-network_mode                           1 # Interconnection network mode
-inter_config_file   config_fermi_islip.icnt # Interconnection network config file
-gpgpu_ptx_use_cuobjdump                    1 # Use cuobjdump to extract ptx and sass from binaries
-gpgpu_experimental_lib_support                    0 # Try to extract code from cuda libraries [Broken because of unknown cudaGetExportTable]
-gpgpu_ptx_convert_to_ptxplus                    0 # Convert SASS (native ISA) to ptxplus and run ptxplus
-gpgpu_ptx_force_max_capability                   20 # Force maximum compute capability
-gpgpu_ptx_inst_debug_to_file                    0 # Dump executed instructions' debug information to file
-gpgpu_ptx_inst_debug_file       inst_debug.txt # Executed instructions' debug output file
-gpgpu_ptx_inst_debug_thread_uid                    1 # Thread UID for executed instructions' debug output
-gpgpu_simd_model                       1 # 1 = post-dominator
-gpgpu_shader_core_pipeline              2048:32 # shader core pipeline config, i.e., {<nthread>:<warpsize>}
-gpgpu_tex_cache:l1  16:128:24,L:R:m:N:L,F:128:4,128:2 # per-shader L1 texture cache  (READ-ONLY) config  {<nsets>:<bsize>:<assoc>,<rep>:<wr>:<alloc>:<wr_alloc>,<mshr>:<N>:<merge>,<mq>:<rf>}
-gpgpu_const_cache:l1 128:64:2,L:R:f:N:L,A:2:64,4 # per-shader L1 constant memory cache  (READ-ONLY) config  {<nsets>:<bsize>:<assoc>,<rep>:<wr>:<alloc>:<wr_alloc>,<mshr>:<N>:<merge>,<mq>} 
-gpgpu_cache:il1     8:128:4,L:R:f:N:L,A:2:48,4 # shader L1 instruction cache config  {<nsets>:<bsize>:<assoc>,<rep>:<wr>:<alloc>:<wr_alloc>,<mshr>:<N>:<merge>,<mq>} 
-gpgpu_cache:dl1     64:128:6,L:L:m:N:H,A:128:8,8 # per-shader L1 data cache config  {<nsets>:<bsize>:<assoc>,<rep>:<wr>:<alloc>:<wr_alloc>,<mshr>:<N>:<merge>,<mq> | none}
-gpgpu_cache:dl1PrefL1                 none # per-shader L1 data cache config  {<nsets>:<bsize>:<assoc>,<rep>:<wr>:<alloc>:<wr_alloc>,<mshr>:<N>:<merge>,<mq> | none}
-gpgpu_cache:dl1PrefShared                 none # per-shader L1 data cache config  {<nsets>:<bsize>:<assoc>,<rep>:<wr>:<alloc>:<wr_alloc>,<mshr>:<N>:<merge>,<mq> | none}
-gmem_skip_L1D                          1 # global memory access skip L1D cache (implements -Xptxas -dlcm=cg, default=no skip)
-gpgpu_perfect_mem                      0 # enable perfect memory mode (no cache miss)
-n_regfile_gating_group                    4 # group of lanes that should be read/written together)
-gpgpu_clock_gated_reg_file                    0 # enable clock gated reg file for power calculations
-gpgpu_clock_gated_lanes                    0 # enable clock gated lanes for power calculations
-gpgpu_shader_registers                65536 # Number of registers per shader core. Limits number of concurrent CTAs. (default 8192)
-gpgpu_shader_cta                      32 # Maximum number of concurrent CTAs in shader (default 8)
-gpgpu_num_cta_barriers                   16 # Maximum number of named barriers per CTA (default 16)
-gpgpu_n_clusters                      28 # number of processing clusters
-gpgpu_n_cores_per_cluster                    1 # number of simd cores per cluster
-gpgpu_n_cluster_ejection_buffer_size                    8 # number of packets in ejection buffer
-gpgpu_n_ldst_response_buffer_size                    2 # number of response packets in ld/st unit ejection buffer
-gpgpu_shmem_size                   16384 # Size of shared memory per shader core (default 16kB)
-gpgpu_shmem_size                   98304 # Size of shared memory per shader core (default 16kB)
-gpgpu_shmem_size_PrefL1                16384 # Size of shared memory per shader core (default 16kB)
-gpgpu_shmem_size_PrefShared                16384 # Size of shared memory per shader core (default 16kB)
-gpgpu_shmem_num_banks                   32 # Number of banks in the shared memory in each shader core (default 16)
-gpgpu_shmem_limited_broadcast                    0 # Limit shared memory to do one broadcast per cycle (default on)
-gpgpu_shmem_warp_parts                    1 # Number of portions a warp is divided into for shared memory bank conflict check 
-gpgpu_warpdistro_shader                   -1 # Specify which shader core to collect the warp size distribution from
-gpgpu_warp_issue_shader                    0 # Specify which shader core to collect the warp issue distribution from
-gpgpu_local_mem_map                    1 # Mapping from local memory space address to simulated GPU physical address space (default = enabled)
-gpgpu_num_reg_banks                   32 # Number of register banks (default = 8)
-gpgpu_reg_bank_use_warp_id                    0 # Use warp ID in mapping registers to banks (default = off)
-gpgpu_operand_collector_num_units_sp                   20 # number of collector units (default = 4)
-gpgpu_operand_collector_num_units_sfu                    4 # number of collector units (default = 4)
-gpgpu_operand_collector_num_units_mem                    8 # number of collector units (default = 2)
-gpgpu_operand_collector_num_units_gen                    0 # number of collector units (default = 0)
-gpgpu_operand_collector_num_in_ports_sp                    4 # number of collector unit in ports (default = 1)
-gpgpu_operand_collector_num_in_ports_sfu                    1 # number of collector unit in ports (default = 1)
-gpgpu_operand_collector_num_in_ports_mem                    1 # number of collector unit in ports (default = 1)
-gpgpu_operand_collector_num_in_ports_gen                    0 # number of collector unit in ports (default = 0)
-gpgpu_operand_collector_num_out_ports_sp                    4 # number of collector unit in ports (default = 1)
-gpgpu_operand_collector_num_out_ports_sfu                    1 # number of collector unit in ports (default = 1)
-gpgpu_operand_collector_num_out_ports_mem                    1 # number of collector unit in ports (default = 1)
-gpgpu_operand_collector_num_out_ports_gen                    0 # number of collector unit in ports (default = 0)
-gpgpu_coalesce_arch                   13 # Coalescing arch (default = 13, anything else is off for now)
-gpgpu_num_sched_per_core                    2 # Number of warp schedulers per core
-gpgpu_max_insn_issue_per_warp                    2 # Max number of instructions that can be issued per warp in one cycle by scheduler
-gpgpu_simt_core_sim_order                    1 # Select the simulation order of cores in a cluster (0=Fix, 1=Round-Robin)
-gpgpu_pipeline_widths        4,1,1,4,1,1,6 # Pipeline widths ID_OC_SP,ID_OC_SFU,ID_OC_MEM,OC_EX_SP,OC_EX_SFU,OC_EX_MEM,EX_WB
-gpgpu_num_sp_units                     4 # Number of SP units (default=1)
-gpgpu_num_sfu_units                    1 # Number of SF units (default=1)
-gpgpu_num_mem_units                    1 # Number if ldst units (default=1) WARNING: not hooked up to anything
-gpgpu_scheduler                      gto # Scheduler configuration: < lrr | gto | two_level_active > If two_level_active:<num_active_warps>:<inner_prioritization>:<outer_prioritization>For complete list of prioritization values see shader.h enum scheduler_prioritization_typeDefault: gto
-gpgpu_concurrent_kernel_sm                    0 # Support concurrent kernels on a SM (default = disabled)
-tlb_size                            4096 # Number of tlb entries per SM.
-gpgpu_dram_scheduler                    1 # 0 = fifo, 1 = FR-FCFS (defaul)
-gpgpu_dram_partition_queues              8:8:8:8 # i2$:$2d:d2$:$2i
-l2_ideal                               0 # Use a ideal L2 cache that always hit
-gpgpu_cache:dl2     64:128:16,L:B:m:W:L,A:1024:1024,4:0,32 # unified banked L2 data cache config  {<nsets>:<bsize>:<assoc>,<rep>:<wr>:<alloc>:<wr_alloc>,<mshr>:<N>:<merge>,<mq>}
-gpgpu_cache:dl2_texture_only                    0 # L2 cache used for texture only
-gpgpu_n_mem                           11 # number of memory modules (e.g. memory controllers) in gpu
-gpgpu_n_sub_partition_per_mchannel                    2 # number of memory subpartition in each memory module
-gpgpu_n_mem_per_ctrlr                    1 # number of memory chips per memory controller
-gpgpu_memlatency_stat                   14 # track and display latency statistics 0x2 enables MC, 0x4 enables queue logs
-gpgpu_frfcfs_dram_sched_queue_size                   64 # 0 = unlimited (default); # entries per chip
-gpgpu_dram_return_queue_size                  116 # 0 = unlimited (default); # entries per chip
-gpgpu_dram_buswidth                    4 # default = 4 bytes (8 bytes per cycle at DDR)
-gpgpu_dram_burst_length                    8 # Burst length of each DRAM request (default = 4 data bus cycle)
-dram_data_command_freq_ratio                    4 # Frequency ratio between DRAM data bus and command bus (default = 2 times, i.e. DDR)
-gpgpu_dram_timing_opt nbk=16:CCD=2:RRD=6:RCD=12:RAS=28:RP=12:RC=40: CL=12:WL=4:CDLR=5:WR=12:nbkgrp=1:CCDL=0:RTPL=0 # DRAM timing parameters = {nbk:tCCD:tRRD:tRCD:tRAS:tRP:tRC:CL:WL:tCDLR:tWR:nbkgrp:tCCDL:tRTPL}
-rop_latency                          120 # ROP queue latency (default 85)
-dram_latency                         100 # DRAM latency (default 30)
-gpgpu_mem_addr_mapping dramid@8;00000000.00000000.00000000.00000000.0000RRRR.RRRRRRRR.RBBBCCCC.BCCSSSSS # mapping memory address to dram model {dramid@<start bit>;<memory address map>}
-gpgpu_mem_addr_test                    0 # run sweep test to check address mapping for aliased address
-gpgpu_mem_address_mask                    1 # 0 = old addressing mask, 1 = new addressing mask, 2 = new add. mask + flipped bank sel and chip sel bits
-gpuwattch_xml_file  gpuwattch_geforcegtx1080ti.xml # GPUWattch XML file
-power_simulation_enabled                    1 # Turn on power simulator (1=On, 0=Off)
-power_per_cycle_dump                    0 # Dump detailed power output each cycle
-power_trace_enabled                    0 # produce a file for the power trace (1=On, 0=Off)
-power_trace_zlevel                     6 # Compression level of the power trace output log (0=no comp, 9=highest)
-steady_power_levels_enabled                    0 # produce a file for the steady power levels (1=On, 0=Off)
-steady_state_definition                  8:4 # allowed deviation:number of samples
-gpgpu_max_cycle                        0 # terminates gpu simulation early (0 = no limit)
-gpgpu_max_insn                         0 # terminates gpu simulation early (0 = no limit)
-gpgpu_max_cta                          0 # terminates gpu simulation early (0 = no limit)
-gpgpu_runtime_stat                   500 # display runtime statistics such as dram utilization {<freq>:<flag>}
-liveness_message_freq                    1 # Minimum number of seconds between simulation liveness messages (0 = always print)
-gpgpu_flush_l1_cache                    0 # Flush L1 cache at the end of each kernel call
-gpgpu_flush_l2_cache                    0 # Flush L2 cache at the end of each kernel call
-gpgpu_deadlock_detect                    0 # Stop the simulation at deadlock (1=on (default), 0=off)
-gpgpu_ptx_instruction_classification                    0 # if enabled will classify ptx instruction types per kernel (Max 255 kernels now)
-gpgpu_ptx_sim_mode                     0 # Select between Performance (default) or Functional simulation (1)
-gpgpu_clock_domains 1481.0:2962.0:1481.0:2750.0 # Clock Domain Frequencies in MhZ {<Core Clock>:<ICNT Clock>:<L2 Clock>:<DRAM Clock>}
-gpgpu_max_concurrent_kernel                    8 # maximum kernels that can run concurrently on GPU
-gpgpu_cflog_interval                    0 # Interval between each snapshot in control flow logger
-visualizer_enabled                     0 # Turn on visualizer output (1=On, 0=Off)
-visualizer_outputfile                 NULL # Specifies the output log file for visualizer
-visualizer_zlevel                      6 # Compression level of the visualizer output log (0=no comp, 9=highest)
-trace_enabled                          0 # Turn on traces
-trace_components                    none # comma seperated list of traces to enable. Complete list found in trace_streams.tup. Default none
-trace_sampling_core                    0 # The core which is printed using CORE_DPRINTF. Default 0
-trace_sampling_memory_partition                   -1 # The memory partition which is printed using MEMPART_DPRINTF. Default -1 (i.e. all)
-gddr_size                      10.9091MB # Size of GDDR in MB/GB.(GLOBAL_HEAP_START, GLOBAL_HEAP_START + gddr_size) would be used for unmanged memory, (GLOBAL_HEAP_START + gddr_size, GLOBAL_HEAP_START + gddr_size*2) would be used for managed memory. 
-page_table_walk_latency                  100 # Average page table walk latency (in core cycle).
-eviction_policy                        1 # Select page eviction policy
-invalidate_clean                       0 # Should directly invalidate clean pages
-reserve_accessed_page_percent                    0 # Percentage of accessed pages reserved from eviction in hope that they will be accessed in next iteration.
-percentage_of_free_page_buffer                    0 # Percentage of free page buffer to trigger the page eviction.
-page_size                            4KB # GDDR page size, only 4KB/2MB avaliable.
-pcie_bandwidth                  16.0GB/s # PCI-e bandwidth per direction, in GB/s.
-enable_dma                             0 # Enable direct access to CPU memory
-multiply_dma_penalty                    2 # Oversubscription Multiplicative Penalty Factor for Adaptive DMA
-migrate_threshold                      8 # Access counter threshold for migrating the page from cpu to gpu
-sim_prof_enable                        1 # Enable gpgpu-sim profiler
-hardware_prefetch                      1 # Select gpgpu-sim hardware prefetcher
-hwprefetch_oversub                     0 # Select gpgpu-sim hardware prefetcher under over-subscription
-page_fault_latency                 66645 # Average fault latency (in core cycle).
-enable_accurate_simulation                    0 # Enable page fault functional simulation.
-enable_ptx_file_line_stats                    1 # Turn on PTX source line statistic profiling. (1 = On)
-ptx_line_stats_filename gpgpu_inst_stats.txt # Output file for PTX source line statistics.
-gpgpu_kernel_launch_latency               222150 # Kernel launch latency in cycles. Default: 0
-gpgpu_cdp_enabled                      0 # Turn on CDP
-save_embedded_ptx                      0 # saves ptx files embedded in binary as <n>.ptx
-keep                                   0 # keep intermediate files created by GPGPU-Sim when interfacing with external programs
-gpgpu_ptx_save_converted_ptxplus                    0 # Saved converted ptxplus to a file
-ptx_opcode_latency_int         4,13,4,5,145 # Opcode latencies for integers <ADD,MAX,MUL,MAD,DIV>Default 1,1,19,25,145
-ptx_opcode_latency_fp          4,13,4,5,39 # Opcode latencies for single precision floating points <ADD,MAX,MUL,MAD,DIV>Default 1,1,1,1,30
-ptx_opcode_latency_dp         8,19,8,8,330 # Opcode latencies for double precision floating points <ADD,MAX,MUL,MAD,DIV>Default 8,8,8,8,335
-ptx_opcode_initiation_int            1,2,2,2,8 # Opcode initiation intervals for integers <ADD,MAX,MUL,MAD,DIV>Default 1,1,4,4,32
-ptx_opcode_initiation_fp            1,2,1,1,4 # Opcode initiation intervals for single precision floating points <ADD,MAX,MUL,MAD,DIV>Default 1,1,1,1,5
-ptx_opcode_initiation_dp          1,2,1,1,130 # Opcode initiation intervals for double precision floating points <ADD,MAX,MUL,MAD,DIV>Default 8,8,8,8,130
-cdp_latency         7200,8000,100,12000,1600 # CDP API latency <cudaStreamCreateWithFlags, cudaGetParameterBufferV2_init_perWarp, cudaGetParameterBufferV2_perKernel, cudaLaunchDeviceV2_init_perWarp, cudaLaunchDevicV2_perKernel>Default 7200,8000,100,12000,1600
DRAM Timing Options:
nbk                                    16 # number of banks
CCD                                     2 # column to column delay
RRD                                     6 # minimal delay between activation of rows in different banks
RCD                                    12 # row to column delay
RAS                                    28 # time needed to activate row
RP                                     12 # time needed to precharge (deactivate) row
RC                                     40 # row cycle time
CDLR                                    5 # switching from write to read (changes tWTR)
WR                                     12 # last data-in to row precharge
CL                                     12 # CAS latency
WL                                      4 # Write latency
nbkgrp                                  1 # number of bank groups
CCDL                                    0 # column to column delay between accesses to different bank groups
RTPL                                    0 # read to precharge delay between accesses to different bank groups
Total number of memory sub partition = 22
addr_dec_mask[CHIP]  = 0000000000000000 	high:64 low:0
addr_dec_mask[BK]    = 0000000000007080 	high:15 low:7
addr_dec_mask[ROW]   = 000000000fff8000 	high:28 low:15
addr_dec_mask[COL]   = 0000000000000f7f 	high:12 low:0
addr_dec_mask[BURST] = 000000000000001f 	high:5 low:0
sub_partition_id_mask = 0000000000000080
GPGPU-Sim uArch: clock freqs: 1481000000.000000:2962000000.000000:1481000000.000000:2750000000.000000
GPGPU-Sim uArch: clock periods: 0.00000000067521944632:0.00000000033760972316:0.00000000067521944632:0.00000000036363636364
*** Initializing Memory Statistics ***
GPGPU-Sim uArch: interconnect node map (shaderID+MemID to icntID)
GPGPU-Sim uArch: Memory nodes ID start from index: 28
GPGPU-Sim uArch:    0   1   2   3   4   5   6
GPGPU-Sim uArch:    7   8   9  10  11  12  13
GPGPU-Sim uArch:   14  15  16  17  18  19  20
GPGPU-Sim uArch:   21  22  23  24  25  26  27
GPGPU-Sim uArch:   28  29  30  31  32  33  34
GPGPU-Sim uArch:   35  36  37  38  39  40  41
GPGPU-Sim uArch:   42  43  44  45  46  47  48
GPGPU-Sim uArch:   49
GPGPU-Sim uArch: interconnect node reverse map (icntID to shaderID+MemID)
GPGPU-Sim uArch: Memory nodes start from ID: 28
GPGPU-Sim uArch:    0   1   2   3   4   5   6
GPGPU-Sim uArch:    7   8   9  10  11  12  13
GPGPU-Sim uArch:   14  15  16  17  18  19  20
GPGPU-Sim uArch:   21  22  23  24  25  26  27
GPGPU-Sim uArch:   28  29  30  31  32  33  34
GPGPU-Sim uArch:   35  36  37  38  39  40  41
GPGPU-Sim uArch:   42  43  44  45  46  47  48
GPGPU-Sim uArch:   49
503228a84c5acce04febe5a767a6866d  /root/gpgpu-sim_UVMSmart/benchmarks/Managed/hotspot/hotspot
GPGPU-Sim uArch: performance model initialization complete.
GPGPU-Sim PTX: __cudaRegisterFatBinary, fat_cubin_handle = 1, filename=default
self exe links to: /root/gpgpu-sim_UVMSmart/benchmarks/Managed/hotspot/hotspot
Running md5sum using "md5sum /root/gpgpu-sim_UVMSmart/benchmarks/Managed/hotspot/hotspot "
Parsing file _cuobjdump_complete_output_mDcKWb
######### cuobjdump parser ########
## Adding new section ELF
Adding arch: sm_20
Adding identifier: default
## Adding new section ELF
Adding arch: sm_20
Adding identifier: default
## Adding new section PTX
Adding ptx filename: _cuobjdump_1.ptx
Adding arch: sm_20
Adding identifier: default
Done parsing!!!
GPGPU-Sim PTX: __cudaRegisterFunction _Z14calculate_tempiPfS_S_iiiiffffff : hostFun 0x0x401ae2, fat_cubin_handle = 1
GPGPU-Sim PTX: allocating shared region for "_Z14calculate_tempiPfS_S_iiiiffffff$__cuda_local_var_16165_39_non_const_temp_on_cuda" from 0x0 to 0x400 (shared memory space)
GPGPU-Sim PTX: allocating shared region for "_Z14calculate_tempiPfS_S_iiiiffffff$__cuda_local_var_16166_39_non_const_power_on_cuda" from 0x400 to 0x800 (shared memory space)
GPGPU-Sim PTX: allocating shared region for "_Z14calculate_tempiPfS_S_iiiiffffff$__cuda_local_var_16167_39_non_const_temp_t" from 0x800 to 0xc00 (shared memory space)
GPGPU-Sim PTX: instruction assembly for function '_Z14calculate_tempiPfS_S_iiiiffffff'...   done.
GPGPU-Sim PTX: finding reconvergence points for '_Z14calculate_tempiPfS_S_iiiiffffff'...
GPGPU-Sim PTX: Finding dominators for '_Z14calculate_tempiPfS_S_iiiiffffff'...
GPGPU-Sim PTX: Finding immediate dominators for '_Z14calculate_tempiPfS_S_iiiiffffff'...
GPGPU-Sim PTX: Finding postdominators for '_Z14calculate_tempiPfS_S_iiiiffffff'...
GPGPU-Sim PTX: Finding immediate postdominators for '_Z14calculate_tempiPfS_S_iiiiffffff'...
GPGPU-Sim PTX: pre-decoding instructions for '_Z14calculate_tempiPfS_S_iiiiffffff'...
GPGPU-Sim PTX: reconvergence points for _Z14calculate_tempiPfS_S_iiiiffffff...
GPGPU-Sim PTX:  1 (potential) branch divergence @  PC=0x118 (_1.ptx:82) @!%p7 bra BB0_2;
GPGPU-Sim PTX:    immediate post dominator      @  PC=0x1b8 (_1.ptx:106) bar.sync 0;
GPGPU-Sim PTX:  2 (potential) branch divergence @  PC=0x120 (_1.ptx:83) bra.uni BB0_1;
GPGPU-Sim PTX:    immediate post dominator      @  PC=0x128 (_1.ptx:86) mad.lo.s32 %r27, %r1, %r10, %r2;
GPGPU-Sim PTX:  3 (potential) branch divergence @  PC=0x1c8 (_1.ptx:108) @%p8 bra BB0_11;
GPGPU-Sim PTX:    immediate post dominator      @  PC=0x5b0 (_1.ptx:247) and.b16 %rs7, %rs8, 255;
GPGPU-Sim PTX:  4 (potential) branch divergence @  PC=0x338 (_1.ptx:157) @!%p15 bra BB0_7;
GPGPU-Sim PTX:    immediate post dominator      @  PC=0x538 (_1.ptx:226) bar.sync 0;
GPGPU-Sim PTX:  5 (potential) branch divergence @  PC=0x340 (_1.ptx:158) bra.uni BB0_5;
GPGPU-Sim PTX:    immediate post dominator      @  PC=0x348 (_1.ptx:161) setp.gt.s32%p16, %r23, %r6;
GPGPU-Sim PTX:  6 (potential) branch divergence @  PC=0x3d0 (_1.ptx:178) @%p28 bra BB0_7;
GPGPU-Sim PTX:    immediate post dominator      @  PC=0x538 (_1.ptx:226) bar.sync 0;
GPGPU-Sim PTX:  7 (potential) branch divergence @  PC=0x548 (_1.ptx:228) @%p31 bra BB0_11;
GPGPU-Sim PTX:    immediate post dominator      @  PC=0x5b0 (_1.ptx:247) and.b16 %rs7, %rs8, 255;
GPGPU-Sim PTX:  8 (potential) branch divergence @  PC=0x558 (_1.ptx:231) @%p32 bra BB0_10;
GPGPU-Sim PTX:    immediate post dominator      @  PC=0x590 (_1.ptx:241) bar.sync 0;
GPGPU-Sim PTX:  9 (potential) branch divergence @  PC=0x5a8 (_1.ptx:244) @%p33 bra BB0_4;
GPGPU-Sim PTX:    immediate post dominator      @  PC=0x5b0 (_1.ptx:247) and.b16 %rs7, %rs8, 255;
GPGPU-Sim PTX: 10 (potential) branch divergence @  PC=0x5c0 (_1.ptx:249) @%p34 bra BB0_13;
GPGPU-Sim PTX:    immediate post dominator      @  PC=0x620 (_1.ptx:264) ret;
GPGPU-Sim PTX: ... end of reconvergence points for _Z14calculate_tempiPfS_S_iiiiffffff
GPGPU-Sim PTX: ... done pre-decoding instructions for '_Z14calculate_tempiPfS_S_iiiiffffff'.
GPGPU-Sim PTX: finished parsing EMBEDDED .ptx file _1.ptx
Adding _cuobjdump_1.ptx with cubin handle 1
GPGPU-Sim PTX: extracting embedded .ptx to temporary file "_ptx_tx8Qul"
Running: cat _ptx_tx8Qul | sed 's/.version 1.5/.version 1.4/' | sed 's/, texmode_independent//' | sed 's/\(\.extern \.const\[1\] .b8 \w\+\)\[\]/\1\[1\]/' | sed 's/const\[.\]/const\[0\]/g' > _ptx2_qbgZ2u
GPGPU-Sim PTX: generating ptxinfo using "$CUDA_INSTALL_PATH/bin/ptxas --gpu-name=sm_20 -v _ptx2_qbgZ2u --output-file  /dev/null 2> _ptx_tx8Qulinfo"
GPGPU-Sim PTX: Kernel '_Z14calculate_tempiPfS_S_iiiiffffff' : regs=34, lmem=0, smem=3072, cmem=120
GPGPU-Sim PTX: removing ptxinfo using "rm -f _ptx_tx8Qul _ptx2_qbgZ2u _ptx_tx8Qulinfo"
GPGPU-Sim PTX: loading globals with explicit initializers... 
GPGPU-Sim PTX: finished loading globals (0 bytes total).
GPGPU-Sim PTX: loading constants with explicit initializers...  done.
WG size of kernel = 16 X 16
pyramidHeight: 2
gridSize: [1024, 1024]
border:[2, 2]
blockGrid:[86, 86]
targetBlock:[12, 12]
Start computing the transient temperature

GPGPU-Sim PTX: cudaLaunch for 0x0x401ae2 (mode=performance simulation) on stream 0
GPGPU-Sim PTX: pushing kernel '_Z14calculate_tempiPfS_S_iiiiffffff' to stream 0, gridDim= (86,86,1) blockDim = (16,16,1) 
GPGPU-Sim uArch: Shader 1 bind to kernel 1 '_Z14calculate_tempiPfS_S_iiiiffffff'
GPGPU-Sim uArch: CTA/core = 7, limited by: regs
GPGPU-Sim uArch: Shader 2 bind to kernel 1 '_Z14calculate_tempiPfS_S_iiiiffffff'
GPGPU-Sim uArch: Shader 3 bind to kernel 1 '_Z14calculate_tempiPfS_S_iiiiffffff'
GPGPU-Sim uArch: Shader 4 bind to kernel 1 '_Z14calculate_tempiPfS_S_iiiiffffff'
GPGPU-Sim uArch: Shader 5 bind to kernel 1 '_Z14calculate_tempiPfS_S_iiiiffffff'
GPGPU-Sim uArch: Shader 6 bind to kernel 1 '_Z14calculate_tempiPfS_S_iiiiffffff'
GPGPU-Sim uArch: Shader 7 bind to kernel 1 '_Z14calculate_tempiPfS_S_iiiiffffff'
GPGPU-Sim uArch: Shader 8 bind to kernel 1 '_Z14calculate_tempiPfS_S_iiiiffffff'
GPGPU-Sim uArch: Shader 9 bind to kernel 1 '_Z14calculate_tempiPfS_S_iiiiffffff'
GPGPU-Sim uArch: Shader 10 bind to kernel 1 '_Z14calculate_tempiPfS_S_iiiiffffff'
GPGPU-Sim uArch: Shader 11 bind to kernel 1 '_Z14calculate_tempiPfS_S_iiiiffffff'
GPGPU-Sim uArch: Shader 12 bind to kernel 1 '_Z14calculate_tempiPfS_S_iiiiffffff'
GPGPU-Sim uArch: Shader 13 bind to kernel 1 '_Z14calculate_tempiPfS_S_iiiiffffff'
GPGPU-Sim uArch: Shader 14 bind to kernel 1 '_Z14calculate_tempiPfS_S_iiiiffffff'
GPGPU-Sim uArch: Shader 15 bind to kernel 1 '_Z14calculate_tempiPfS_S_iiiiffffff'
GPGPU-Sim uArch: Shader 16 bind to kernel 1 '_Z14calculate_tempiPfS_S_iiiiffffff'
GPGPU-Sim uArch: Shader 17 bind to kernel 1 '_Z14calculate_tempiPfS_S_iiiiffffff'
GPGPU-Sim uArch: Shader 18 bind to kernel 1 '_Z14calculate_tempiPfS_S_iiiiffffff'
GPGPU-Sim uArch: Shader 19 bind to kernel 1 '_Z14calculate_tempiPfS_S_iiiiffffff'
GPGPU-Sim uArch: Shader 20 bind to kernel 1 '_Z14calculate_tempiPfS_S_iiiiffffff'
GPGPU-Sim uArch: Shader 21 bind to kernel 1 '_Z14calculate_tempiPfS_S_iiiiffffff'
GPGPU-Sim uArch: Shader 22 bind to kernel 1 '_Z14calculate_tempiPfS_S_iiiiffffff'
GPGPU-Sim uArch: Shader 23 bind to kernel 1 '_Z14calculate_tempiPfS_S_iiiiffffff'
GPGPU-Sim uArch: Shader 24 bind to kernel 1 '_Z14calculate_tempiPfS_S_iiiiffffff'
GPGPU-Sim uArch: Shader 25 bind to kernel 1 '_Z14calculate_tempiPfS_S_iiiiffffff'
GPGPU-Sim uArch: Shader 26 bind to kernel 1 '_Z14calculate_tempiPfS_S_iiiiffffff'
GPGPU-Sim uArch: Shader 27 bind to kernel 1 '_Z14calculate_tempiPfS_S_iiiiffffff'
GPGPU-Sim uArch: Shader 0 bind to kernel 1 '_Z14calculate_tempiPfS_S_iiiiffffff'
GPGPU-Sim uArch: Shader 1 bind to kernel 1 '_Z14calculate_tempiPfS_S_iiiiffffff'
GPGPU-Sim uArch: Shader 2 bind to kernel 1 '_Z14calculate_tempiPfS_S_iiiiffffff'
GPGPU-Sim uArch: Shader 3 bind to kernel 1 '_Z14calculate_tempiPfS_S_iiiiffffff'
GPGPU-Sim uArch: Shader 4 bind to kernel 1 '_Z14calculate_tempiPfS_S_iiiiffffff'
GPGPU-Sim uArch: Shader 7 bind to kernel 1 '_Z14calculate_tempiPfS_S_iiiiffffff'
GPGPU-Sim uArch: Shader 13 bind to kernel 1 '_Z14calculate_tempiPfS_S_iiiiffffff'
GPGPU-Sim uArch: Shader 15 bind to kernel 1 '_Z14calculate_tempiPfS_S_iiiiffffff'
GPGPU-Sim uArch: Shader 17 bind to kernel 1 '_Z14calculate_tempiPfS_S_iiiiffffff'
GPGPU-Sim uArch: Shader 18 bind to kernel 1 '_Z14calculate_tempiPfS_S_iiiiffffff'
GPGPU-Sim uArch: Shader 21 bind to kernel 1 '_Z14calculate_tempiPfS_S_iiiiffffff'
GPGPU-Sim uArch: Shader 24 bind to kernel 1 '_Z14calculate_tempiPfS_S_iiiiffffff'
GPGPU-Sim uArch: Shader 25 bind to kernel 1 '_Z14calculate_tempiPfS_S_iiiiffffff'
GPGPU-Sim uArch: Shader 27 bind to kernel 1 '_Z14calculate_tempiPfS_S_iiiiffffff'
GPGPU-Sim uArch: Shader 0 bind to kernel 1 '_Z14calculate_tempiPfS_S_iiiiffffff'
GPGPU-Sim uArch: Shader 14 bind to kernel 1 '_Z14calculate_tempiPfS_S_iiiiffffff'
GPGPU-Sim uArch: Shader 15 bind to kernel 1 '_Z14calculate_tempiPfS_S_iiiiffffff'
GPGPU-Sim uArch: Shader 18 bind to kernel 1 '_Z14calculate_tempiPfS_S_iiiiffffff'
GPGPU-Sim uArch: Shader 22 bind to kernel 1 '_Z14calculate_tempiPfS_S_iiiiffffff'
GPGPU-Sim uArch: Shader 23 bind to kernel 1 '_Z14calculate_tempiPfS_S_iiiiffffff'
GPGPU-Sim uArch: Shader 27 bind to kernel 1 '_Z14calculate_tempiPfS_S_iiiiffffff'
GPGPU-Sim uArch: Shader 4 bind to kernel 1 '_Z14calculate_tempiPfS_S_iiiiffffff'
GPGPU-Sim uArch: Shader 8 bind to kernel 1 '_Z14calculate_tempiPfS_S_iiiiffffff'
GPGPU-Sim uArch: Shader 11 bind to kernel 1 '_Z14calculate_tempiPfS_S_iiiiffffff'
GPGPU-Sim uArch: Shader 12 bind to kernel 1 '_Z14calculate_tempiPfS_S_iiiiffffff'
GPGPU-Sim uArch: Shader 13 bind to kernel 1 '_Z14calculate_tempiPfS_S_iiiiffffff'
GPGPU-Sim uArch: Shader 15 bind to kernel 1 '_Z14calculate_tempiPfS_S_iiiiffffff'
GPGPU-Sim uArch: Shader 20 bind to kernel 1 '_Z14calculate_tempiPfS_S_iiiiffffff'
GPGPU-Sim uArch: Shader 24 bind to kernel 1 '_Z14calculate_tempiPfS_S_iiiiffffff'
GPGPU-Sim uArch: Shader 4 bind to kernel 1 '_Z14calculate_tempiPfS_S_iiiiffffff'
GPGPU-Sim uArch: Shader 6 bind to kernel 1 '_Z14calculate_tempiPfS_S_iiiiffffff'
GPGPU-Sim uArch: Shader 12 bind to kernel 1 '_Z14calculate_tempiPfS_S_iiiiffffff'
GPGPU-Sim uArch: Shader 13 bind to kernel 1 '_Z14calculate_tempiPfS_S_iiiiffffff'
GPGPU-Sim uArch: Shader 22 bind to kernel 1 '_Z14calculate_tempiPfS_S_iiiiffffff'
GPGPU-Sim uArch: Shader 24 bind to kernel 1 '_Z14calculate_tempiPfS_S_iiiiffffff'
GPGPU-Sim uArch: Shader 9 bind to kernel 1 '_Z14calculate_tempiPfS_S_iiiiffffff'
GPGPU-Sim uArch: Shader 10 bind to kernel 1 '_Z14calculate_tempiPfS_S_iiiiffffff'
GPGPU-Sim uArch: Shader 11 bind to kernel 1 '_Z14calculate_tempiPfS_S_iiiiffffff'
GPGPU-Sim uArch: Shader 12 bind to kernel 1 '_Z14calculate_tempiPfS_S_iiiiffffff'
GPGPU-Sim uArch: Shader 13 bind to kernel 1 '_Z14calculate_tempiPfS_S_iiiiffffff'
GPGPU-Sim uArch: Shader 15 bind to kernel 1 '_Z14calculate_tempiPfS_S_iiiiffffff'
GPGPU-Sim uArch: Shader 16 bind to kernel 1 '_Z14calculate_tempiPfS_S_iiiiffffff'
GPGPU-Sim uArch: Shader 18 bind to kernel 1 '_Z14calculate_tempiPfS_S_iiiiffffff'
GPGPU-Sim uArch: Shader 19 bind to kernel 1 '_Z14calculate_tempiPfS_S_iiiiffffff'
GPGPU-Sim uArch: Shader 20 bind to kernel 1 '_Z14calculate_tempiPfS_S_iiiiffffff'
GPGPU-Sim uArch: Shader 22 bind to kernel 1 '_Z14calculate_tempiPfS_S_iiiiffffff'
GPGPU-Sim uArch: Shader 24 bind to kernel 1 '_Z14calculate_tempiPfS_S_iiiiffffff'
GPGPU-Sim uArch: Shader 26 bind to kernel 1 '_Z14calculate_tempiPfS_S_iiiiffffff'
GPGPU-Sim uArch: Shader 27 bind to kernel 1 '_Z14calculate_tempiPfS_S_iiiiffffff'
GPGPU-Sim uArch: Shader 0 bind to kernel 1 '_Z14calculate_tempiPfS_S_iiiiffffff'
GPGPU-Sim uArch: Shader 1 bind to kernel 1 '_Z14calculate_tempiPfS_S_iiiiffffff'
GPGPU-Sim uArch: Shader 4 bind to kernel 1 '_Z14calculate_tempiPfS_S_iiiiffffff'
GPGPU-Sim uArch: Shader 6 bind to kernel 1 '_Z14calculate_tempiPfS_S_iiiiffffff'
GPGPU-Sim uArch: Shader 7 bind to kernel 1 '_Z14calculate_tempiPfS_S_iiiiffffff'
GPGPU-Sim uArch: Shader 9 bind to kernel 1 '_Z14calculate_tempiPfS_S_iiiiffffff'
GPGPU-Sim uArch: Shader 14 bind to kernel 1 '_Z14calculate_tempiPfS_S_iiiiffffff'
GPGPU-Sim uArch: Shader 17 bind to kernel 1 '_Z14calculate_tempiPfS_S_iiiiffffff'
GPGPU-Sim uArch: Shader 21 bind to kernel 1 '_Z14calculate_tempiPfS_S_iiiiffffff'
GPGPU-Sim uArch: Shader 23 bind to kernel 1 '_Z14calculate_tempiPfS_S_iiiiffffff'
GPGPU-Sim uArch: Shader 25 bind to kernel 1 '_Z14calculate_tempiPfS_S_iiiiffffff'
GPGPU-Sim uArch: Shader 3 bind to kernel 1 '_Z14calculate_tempiPfS_S_iiiiffffff'
GPGPU-Sim uArch: Shader 5 bind to kernel 1 '_Z14calculate_tempiPfS_S_iiiiffffff'
GPGPU-Sim uArch: Shader 7 bind to kernel 1 '_Z14calculate_tempiPfS_S_iiiiffffff'
GPGPU-Sim uArch: Shader 22 bind to kernel 1 '_Z14calculate_tempiPfS_S_iiiiffffff'
GPGPU-Sim uArch: Shader 27 bind to kernel 1 '_Z14calculate_tempiPfS_S_iiiiffffff'
GPGPU-Sim uArch: Shader 20 bind to kernel 1 '_Z14calculate_tempiPfS_S_iiiiffffff'
GPGPU-Sim uArch: Shader 14 bind to kernel 1 '_Z14calculate_tempiPfS_S_iiiiffffff'
GPGPU-Sim uArch: Shader 15 bind to kernel 1 '_Z14calculate_tempiPfS_S_iiiiffffff'
GPGPU-Sim uArch: Shader 16 bind to kernel 1 '_Z14calculate_tempiPfS_S_iiiiffffff'
GPGPU-Sim uArch: Shader 17 bind to kernel 1 '_Z14calculate_tempiPfS_S_iiiiffffff'
GPGPU-Sim uArch: Shader 18 bind to kernel 1 '_Z14calculate_tempiPfS_S_iiiiffffff'
GPGPU-Sim uArch: Shader 19 bind to kernel 1 '_Z14calculate_tempiPfS_S_iiiiffffff'
GPGPU-Sim uArch: Shader 20 bind to kernel 1 '_Z14calculate_tempiPfS_S_iiiiffffff'
GPGPU-Sim uArch: Shader 21 bind to kernel 1 '_Z14calculate_tempiPfS_S_iiiiffffff'
GPGPU-Sim uArch: Shader 22 bind to kernel 1 '_Z14calculate_tempiPfS_S_iiiiffffff'
GPGPU-Sim uArch: Shader 23 bind to kernel 1 '_Z14calculate_tempiPfS_S_iiiiffffff'
GPGPU-Sim uArch: Shader 25 bind to kernel 1 '_Z14calculate_tempiPfS_S_iiiiffffff'
GPGPU-Sim uArch: Shader 26 bind to kernel 1 '_Z14calculate_tempiPfS_S_iiiiffffff'
GPGPU-Sim uArch: Shader 12 bind to kernel 1 '_Z14calculate_tempiPfS_S_iiiiffffff'
GPGPU-Sim uArch: Shader 14 bind to kernel 1 '_Z14calculate_tempiPfS_S_iiiiffffff'
GPGPU-Sim uArch: Shader 15 bind to kernel 1 '_Z14calculate_tempiPfS_S_iiiiffffff'
GPGPU-Sim uArch: Shader 16 bind to kernel 1 '_Z14calculate_tempiPfS_S_iiiiffffff'
GPGPU-Sim uArch: Shader 17 bind to kernel 1 '_Z14calculate_tempiPfS_S_iiiiffffff'
GPGPU-Sim uArch: Shader 18 bind to kernel 1 '_Z14calculate_tempiPfS_S_iiiiffffff'
GPGPU-Sim uArch: Shader 19 bind to kernel 1 '_Z14calculate_tempiPfS_S_iiiiffffff'
GPGPU-Sim uArch: Shader 20 bind to kernel 1 '_Z14calculate_tempiPfS_S_iiiiffffff'
GPGPU-Sim uArch: Shader 21 bind to kernel 1 '_Z14calculate_tempiPfS_S_iiiiffffff'
GPGPU-Sim uArch: Shader 22 bind to kernel 1 '_Z14calculate_tempiPfS_S_iiiiffffff'
GPGPU-Sim uArch: Shader 23 bind to kernel 1 '_Z14calculate_tempiPfS_S_iiiiffffff'
GPGPU-Sim uArch: Shader 24 bind to kernel 1 '_Z14calculate_tempiPfS_S_iiiiffffff'
GPGPU-Sim uArch: Shader 25 bind to kernel 1 '_Z14calculate_tempiPfS_S_iiiiffffff'
GPGPU-Sim uArch: Shader 26 bind to kernel 1 '_Z14calculate_tempiPfS_S_iiiiffffff'
GPGPU-Sim uArch: Shader 1 bind to kernel 1 '_Z14calculate_tempiPfS_S_iiiiffffff'
GPGPU-Sim uArch: Shader 2 bind to kernel 1 '_Z14calculate_tempiPfS_S_iiiiffffff'
GPGPU-Sim uArch: Shader 21 bind to kernel 1 '_Z14calculate_tempiPfS_S_iiiiffffff'
GPGPU-Sim uArch: Shader 22 bind to kernel 1 '_Z14calculate_tempiPfS_S_iiiiffffff'
GPGPU-Sim uArch: Shader 23 bind to kernel 1 '_Z14calculate_tempiPfS_S_iiiiffffff'
GPGPU-Sim uArch: Shader 24 bind to kernel 1 '_Z14calculate_tempiPfS_S_iiiiffffff'
GPGPU-Sim uArch: Shader 25 bind to kernel 1 '_Z14calculate_tempiPfS_S_iiiiffffff'
GPGPU-Sim uArch: Shader 26 bind to kernel 1 '_Z14calculate_tempiPfS_S_iiiiffffff'
GPGPU-Sim uArch: Shader 27 bind to kernel 1 '_Z14calculate_tempiPfS_S_iiiiffffff'
GPGPU-Sim uArch: Shader 0 bind to kernel 1 '_Z14calculate_tempiPfS_S_iiiiffffff'
GPGPU-Sim uArch: Shader 1 bind to kernel 1 '_Z14calculate_tempiPfS_S_iiiiffffff'
GPGPU-Sim uArch: Shader 2 bind to kernel 1 '_Z14calculate_tempiPfS_S_iiiiffffff'
GPGPU-Sim uArch: Shader 3 bind to kernel 1 '_Z14calculate_tempiPfS_S_iiiiffffff'
GPGPU-Sim uArch: Shader 14 bind to kernel 1 '_Z14calculate_tempiPfS_S_iiiiffffff'
GPGPU-Sim uArch: Shader 15 bind to kernel 1 '_Z14calculate_tempiPfS_S_iiiiffffff'
GPGPU-Sim uArch: Shader 26 bind to kernel 1 '_Z14calculate_tempiPfS_S_iiiiffffff'
GPGPU-Sim uArch: Shader 27 bind to kernel 1 '_Z14calculate_tempiPfS_S_iiiiffffff'
GPGPU-Sim uArch: Shader 3 bind to kernel 1 '_Z14calculate_tempiPfS_S_iiiiffffff'
GPGPU-Sim uArch: Shader 4 bind to kernel 1 '_Z14calculate_tempiPfS_S_iiiiffffff'
GPGPU-Sim uArch: Shader 5 bind to kernel 1 '_Z14calculate_tempiPfS_S_iiiiffffff'
GPGPU-Sim uArch: Shader 7 bind to kernel 1 '_Z14calculate_tempiPfS_S_iiiiffffff'
GPGPU-Sim uArch: Shader 10 bind to kernel 1 '_Z14calculate_tempiPfS_S_iiiiffffff'
GPGPU-Sim uArch: Shader 11 bind to kernel 1 '_Z14calculate_tempiPfS_S_iiiiffffff'
GPGPU-Sim uArch: Shader 12 bind to kernel 1 '_Z14calculate_tempiPfS_S_iiiiffffff'
GPGPU-Sim uArch: Shader 13 bind to kernel 1 '_Z14calculate_tempiPfS_S_iiiiffffff'
GPGPU-Sim uArch: Shader 14 bind to kernel 1 '_Z14calculate_tempiPfS_S_iiiiffffff'
GPGPU-Sim uArch: Shader 15 bind to kernel 1 '_Z14calculate_tempiPfS_S_iiiiffffff'
GPGPU-Sim uArch: Shader 5 bind to kernel 1 '_Z14calculate_tempiPfS_S_iiiiffffff'
GPGPU-Sim uArch: Shader 6 bind to kernel 1 '_Z14calculate_tempiPfS_S_iiiiffffff'
GPGPU-Sim uArch: Shader 7 bind to kernel 1 '_Z14calculate_tempiPfS_S_iiiiffffff'
GPGPU-Sim uArch: Shader 8 bind to kernel 1 '_Z14calculate_tempiPfS_S_iiiiffffff'
GPGPU-Sim uArch: Shader 9 bind to kernel 1 '_Z14calculate_tempiPfS_S_iiiiffffff'
GPGPU-Sim uArch: Shader 10 bind to kernel 1 '_Z14calculate_tempiPfS_S_iiiiffffff'
GPGPU-Sim uArch: Shader 11 bind to kernel 1 '_Z14calculate_tempiPfS_S_iiiiffffff'
GPGPU-Sim uArch: Shader 14 bind to kernel 1 '_Z14calculate_tempiPfS_S_iiiiffffff'
GPGPU-Sim uArch: Shader 15 bind to kernel 1 '_Z14calculate_tempiPfS_S_iiiiffffff'
GPGPU-Sim uArch: Shader 17 bind to kernel 1 '_Z14calculate_tempiPfS_S_iiiiffffff'
GPGPU-Sim uArch: Shader 1 bind to kernel 1 '_Z14calculate_tempiPfS_S_iiiiffffff'
GPGPU-Sim uArch: Shader 2 bind to kernel 1 '_Z14calculate_tempiPfS_S_iiiiffffff'
GPGPU-Sim uArch: Shader 3 bind to kernel 1 '_Z14calculate_tempiPfS_S_iiiiffffff'
GPGPU-Sim uArch: Shader 4 bind to kernel 1 '_Z14calculate_tempiPfS_S_iiiiffffff'
GPGPU-Sim uArch: Shader 5 bind to kernel 1 '_Z14calculate_tempiPfS_S_iiiiffffff'
GPGPU-Sim uArch: Shader 6 bind to kernel 1 '_Z14calculate_tempiPfS_S_iiiiffffff'
GPGPU-Sim uArch: Shader 7 bind to kernel 1 '_Z14calculate_tempiPfS_S_iiiiffffff'
GPGPU-Sim uArch: Shader 8 bind to kernel 1 '_Z14calculate_tempiPfS_S_iiiiffffff'
GPGPU-Sim uArch: Shader 9 bind to kernel 1 '_Z14calculate_tempiPfS_S_iiiiffffff'
GPGPU-Sim uArch: Shader 10 bind to kernel 1 '_Z14calculate_tempiPfS_S_iiiiffffff'
GPGPU-Sim uArch: Shader 11 bind to kernel 1 '_Z14calculate_tempiPfS_S_iiiiffffff'
GPGPU-Sim uArch: Shader 12 bind to kernel 1 '_Z14calculate_tempiPfS_S_iiiiffffff'
GPGPU-Sim uArch: Shader 13 bind to kernel 1 '_Z14calculate_tempiPfS_S_iiiiffffff'
GPGPU-Sim uArch: Shader 14 bind to kernel 1 '_Z14calculate_tempiPfS_S_iiiiffffff'
GPGPU-Sim uArch: Shader 15 bind to kernel 1 '_Z14calculate_tempiPfS_S_iiiiffffff'
GPGPU-Sim uArch: Shader 16 bind to kernel 1 '_Z14calculate_tempiPfS_S_iiiiffffff'
GPGPU-Sim uArch: Shader 17 bind to kernel 1 '_Z14calculate_tempiPfS_S_iiiiffffff'
GPGPU-Sim uArch: Shader 18 bind to kernel 1 '_Z14calculate_tempiPfS_S_iiiiffffff'
GPGPU-Sim uArch: Shader 19 bind to kernel 1 '_Z14calculate_tempiPfS_S_iiiiffffff'
GPGPU-Sim uArch: Shader 20 bind to kernel 1 '_Z14calculate_tempiPfS_S_iiiiffffff'
GPGPU-Sim uArch: Shader 21 bind to kernel 1 '_Z14calculate_tempiPfS_S_iiiiffffff'
GPGPU-Sim uArch: Shader 22 bind to kernel 1 '_Z14calculate_tempiPfS_S_iiiiffffff'
GPGPU-Sim uArch: Shader 23 bind to kernel 1 '_Z14calculate_tempiPfS_S_iiiiffffff'
GPGPU-Sim uArch: Shader 24 bind to kernel 1 '_Z14calculate_tempiPfS_S_iiiiffffff'
GPGPU-Sim uArch: Shader 25 bind to kernel 1 '_Z14calculate_tempiPfS_S_iiiiffffff'
GPGPU-Sim uArch: Shader 26 bind to kernel 1 '_Z14calculate_tempiPfS_S_iiiiffffff'
GPGPU-Sim uArch: Shader 27 bind to kernel 1 '_Z14calculate_tempiPfS_S_iiiiffffff'
GPGPU-Sim uArch: Shader 0 bind to kernel 1 '_Z14calculate_tempiPfS_S_iiiiffffff'
Destroy streams for kernel 1: size 0
kernel_name = _Z14calculate_tempiPfS_S_iiiiffffff 
kernel_launch_uid = 1 
gpu_sim_cycle = 2360954
gpu_sim_insn = 415466464
gpu_ipc =     175.9740
gpu_tot_sim_cycle = 2583104
gpu_tot_sim_insn = 415466464
gpu_tot_ipc =     160.8400
gpu_tot_issued_cta = 7396
max_total_param_size = 0
gpu_stall_dramfull = 78263
gpu_stall_icnt2sh    = 642313
partiton_reqs_in_parallel = 51862725
partiton_reqs_in_parallel_total    = 0
partiton_level_parallism =      21.9669
partiton_level_parallism_total  =      20.0777
partiton_reqs_in_parallel_util = 51862725
partiton_reqs_in_parallel_util_total    = 0
gpu_sim_cycle_parition_util = 2360284
gpu_tot_sim_cycle_parition_util    = 0
partiton_level_parallism_util =      21.9731
partiton_level_parallism_util_total  =      21.9731
partiton_replys_in_parallel = 456444
partiton_replys_in_parallel_total    = 0
L2_BW  =      18.3246 GB/Sec
L2_BW_total  =      16.7487 GB/Sec
gpu_total_sim_rate=128508

========= Core cache stats =========
L1I_cache:
	L1I_total_cache_accesses = 7740000
	L1I_total_cache_misses = 8688
	L1I_total_cache_miss_rate = 0.0011
	L1I_total_cache_pending_hits = 0
	L1I_total_cache_reservation_fails = 6846
L1D_cache:
	L1D_cache_core[0]: Access = 0, Miss = 0, Miss_rate = -nan, Pending_hits = 0, Reservation_fails = 0
	L1D_cache_core[1]: Access = 0, Miss = 0, Miss_rate = -nan, Pending_hits = 0, Reservation_fails = 0
	L1D_cache_core[2]: Access = 0, Miss = 0, Miss_rate = -nan, Pending_hits = 0, Reservation_fails = 0
	L1D_cache_core[3]: Access = 0, Miss = 0, Miss_rate = -nan, Pending_hits = 0, Reservation_fails = 0
	L1D_cache_core[4]: Access = 0, Miss = 0, Miss_rate = -nan, Pending_hits = 0, Reservation_fails = 0
	L1D_cache_core[5]: Access = 0, Miss = 0, Miss_rate = -nan, Pending_hits = 0, Reservation_fails = 0
	L1D_cache_core[6]: Access = 0, Miss = 0, Miss_rate = -nan, Pending_hits = 0, Reservation_fails = 0
	L1D_cache_core[7]: Access = 0, Miss = 0, Miss_rate = -nan, Pending_hits = 0, Reservation_fails = 0
	L1D_cache_core[8]: Access = 0, Miss = 0, Miss_rate = -nan, Pending_hits = 0, Reservation_fails = 0
	L1D_cache_core[9]: Access = 0, Miss = 0, Miss_rate = -nan, Pending_hits = 0, Reservation_fails = 0
	L1D_cache_core[10]: Access = 0, Miss = 0, Miss_rate = -nan, Pending_hits = 0, Reservation_fails = 0
	L1D_cache_core[11]: Access = 0, Miss = 0, Miss_rate = -nan, Pending_hits = 0, Reservation_fails = 0
	L1D_cache_core[12]: Access = 0, Miss = 0, Miss_rate = -nan, Pending_hits = 0, Reservation_fails = 0
	L1D_cache_core[13]: Access = 0, Miss = 0, Miss_rate = -nan, Pending_hits = 0, Reservation_fails = 0
	L1D_cache_core[14]: Access = 0, Miss = 0, Miss_rate = -nan, Pending_hits = 0, Reservation_fails = 0
	L1D_cache_core[15]: Access = 0, Miss = 0, Miss_rate = -nan, Pending_hits = 0, Reservation_fails = 0
	L1D_cache_core[16]: Access = 0, Miss = 0, Miss_rate = -nan, Pending_hits = 0, Reservation_fails = 0
	L1D_cache_core[17]: Access = 0, Miss = 0, Miss_rate = -nan, Pending_hits = 0, Reservation_fails = 0
	L1D_cache_core[18]: Access = 0, Miss = 0, Miss_rate = -nan, Pending_hits = 0, Reservation_fails = 0
	L1D_cache_core[19]: Access = 0, Miss = 0, Miss_rate = -nan, Pending_hits = 0, Reservation_fails = 0
	L1D_cache_core[20]: Access = 0, Miss = 0, Miss_rate = -nan, Pending_hits = 0, Reservation_fails = 0
	L1D_cache_core[21]: Access = 0, Miss = 0, Miss_rate = -nan, Pending_hits = 0, Reservation_fails = 0
	L1D_cache_core[22]: Access = 0, Miss = 0, Miss_rate = -nan, Pending_hits = 0, Reservation_fails = 0
	L1D_cache_core[23]: Access = 0, Miss = 0, Miss_rate = -nan, Pending_hits = 0, Reservation_fails = 0
	L1D_cache_core[24]: Access = 0, Miss = 0, Miss_rate = -nan, Pending_hits = 0, Reservation_fails = 0
	L1D_cache_core[25]: Access = 0, Miss = 0, Miss_rate = -nan, Pending_hits = 0, Reservation_fails = 0
	L1D_cache_core[26]: Access = 0, Miss = 0, Miss_rate = -nan, Pending_hits = 0, Reservation_fails = 0
	L1D_cache_core[27]: Access = 0, Miss = 0, Miss_rate = -nan, Pending_hits = 0, Reservation_fails = 0
	L1D_total_cache_accesses = 0
	L1D_total_cache_misses = 0
	L1D_total_cache_pending_hits = 0
	L1D_total_cache_reservation_fails = 0
	L1D_cache_data_port_util = 0.000
	L1D_cache_fill_port_util = 0.000
L1C_cache:
	L1C_total_cache_accesses = 769184
	L1C_total_cache_misses = 2195
	L1C_total_cache_miss_rate = 0.0029
	L1C_total_cache_pending_hits = 0
	L1C_total_cache_reservation_fails = 4886
L1T_cache:
	L1T_total_cache_accesses = 0
	L1T_total_cache_misses = 0
	L1T_total_cache_pending_hits = 0
	L1T_total_cache_reservation_fails = 0

Total_core_cache_stats:
	Total_core_cache_stats_breakdown[GLOBAL_ACC_R][HIT] = 0
	Total_core_cache_stats_breakdown[GLOBAL_ACC_R][HIT_RESERVED] = 0
	Total_core_cache_stats_breakdown[GLOBAL_ACC_R][MISS] = 0
	Total_core_cache_stats_breakdown[GLOBAL_ACC_R][RESERVATION_FAIL] = 0
	Total_core_cache_stats_breakdown[LOCAL_ACC_R][HIT] = 0
	Total_core_cache_stats_breakdown[LOCAL_ACC_R][HIT_RESERVED] = 0
	Total_core_cache_stats_breakdown[LOCAL_ACC_R][MISS] = 0
	Total_core_cache_stats_breakdown[LOCAL_ACC_R][RESERVATION_FAIL] = 0
	Total_core_cache_stats_breakdown[CONST_ACC_R][HIT] = 766989
	Total_core_cache_stats_breakdown[CONST_ACC_R][HIT_RESERVED] = 0
	Total_core_cache_stats_breakdown[CONST_ACC_R][MISS] = 2195
	Total_core_cache_stats_breakdown[CONST_ACC_R][RESERVATION_FAIL] = 4886
	Total_core_cache_stats_breakdown[TEXTURE_ACC_R][HIT] = 0
	Total_core_cache_stats_breakdown[TEXTURE_ACC_R][HIT_RESERVED] = 0
	Total_core_cache_stats_breakdown[TEXTURE_ACC_R][MISS] = 0
	Total_core_cache_stats_breakdown[TEXTURE_ACC_R][RESERVATION_FAIL] = 0
	Total_core_cache_stats_breakdown[GLOBAL_ACC_W][HIT] = 0
	Total_core_cache_stats_breakdown[GLOBAL_ACC_W][HIT_RESERVED] = 0
	Total_core_cache_stats_breakdown[GLOBAL_ACC_W][MISS] = 0
	Total_core_cache_stats_breakdown[GLOBAL_ACC_W][RESERVATION_FAIL] = 0
	Total_core_cache_stats_breakdown[LOCAL_ACC_W][HIT] = 0
	Total_core_cache_stats_breakdown[LOCAL_ACC_W][HIT_RESERVED] = 0
	Total_core_cache_stats_breakdown[LOCAL_ACC_W][MISS] = 0
	Total_core_cache_stats_breakdown[LOCAL_ACC_W][RESERVATION_FAIL] = 0
	Total_core_cache_stats_breakdown[L1_WRBK_ACC][HIT] = 0
	Total_core_cache_stats_breakdown[L1_WRBK_ACC][HIT_RESERVED] = 0
	Total_core_cache_stats_breakdown[L1_WRBK_ACC][MISS] = 0
	Total_core_cache_stats_breakdown[L1_WRBK_ACC][RESERVATION_FAIL] = 0
	Total_core_cache_stats_breakdown[L2_WRBK_ACC][HIT] = 0
	Total_core_cache_stats_breakdown[L2_WRBK_ACC][HIT_RESERVED] = 0
	Total_core_cache_stats_breakdown[L2_WRBK_ACC][MISS] = 0
	Total_core_cache_stats_breakdown[L2_WRBK_ACC][RESERVATION_FAIL] = 0
	Total_core_cache_stats_breakdown[INST_ACC_R][HIT] = 7731312
	Total_core_cache_stats_breakdown[INST_ACC_R][HIT_RESERVED] = 0
	Total_core_cache_stats_breakdown[INST_ACC_R][MISS] = 8688
	Total_core_cache_stats_breakdown[INST_ACC_R][RESERVATION_FAIL] = 6846
	Total_core_cache_stats_breakdown[L1_WR_ALLOC_R][HIT] = 0
	Total_core_cache_stats_breakdown[L1_WR_ALLOC_R][HIT_RESERVED] = 0
	Total_core_cache_stats_breakdown[L1_WR_ALLOC_R][MISS] = 0
	Total_core_cache_stats_breakdown[L1_WR_ALLOC_R][RESERVATION_FAIL] = 0
	Total_core_cache_stats_breakdown[L2_WR_ALLOC_R][HIT] = 0
	Total_core_cache_stats_breakdown[L2_WR_ALLOC_R][HIT_RESERVED] = 0
	Total_core_cache_stats_breakdown[L2_WR_ALLOC_R][MISS] = 0
	Total_core_cache_stats_breakdown[L2_WR_ALLOC_R][RESERVATION_FAIL] = 0
	Total_core_cache_stats_breakdown[CONST_ACC_R][TOTAL_ACCESS] = 769184
	Total_core_cache_stats_breakdown[INST_ACC_R][TOTAL_ACCESS] = 7740000
Shader 0 warp_id issue ditsribution:
warp_id:
0, 1, 2, 3, 4, 5, 6, 7, 8, 9, 10, 11, 12, 13, 14, 15, 16, 17, 18, 19, 20, 21, 22, 23, 24, 25, 26, 27, 28, 29, 30, 31, 32, 33, 34, 35, 36, 37, 38, 39, 40, 41, 42, 43, 44, 45, 46, 47, 48, 49, 50, 51, 52, 53, 54, 55, 
distro:
10981, 13840, 13861, 13672, 13716, 13670, 13711, 11012, 10475, 13200, 13226, 13045, 13082, 13041, 13080, 10497, 9482, 11959, 11988, 11944, 11981, 11939, 11979, 9574, 9051, 11321, 11343, 11316, 11340, 11308, 11339, 9078, 9297, 11631, 11655, 11618, 11651, 11610, 11655, 9313, 8807, 11002, 11031, 10852, 10886, 10850, 10879, 8751, 8804, 11012, 11028, 10853, 10877, 10835, 10874, 8745, 
gpgpu_n_tot_thrd_icount = 485326208
gpgpu_n_tot_w_icount = 15166444
gpgpu_n_stall_shd_mem = 390288
gpgpu_n_mem_read_local = 0
gpgpu_n_mem_write_local = 0
gpgpu_n_mem_read_global = 346456
gpgpu_n_mem_write_global = 109568
gpgpu_n_mem_texture = 0
gpgpu_n_mem_const = 56
gpgpu_n_load_insn  = 3720992
gpgpu_n_store_insn = 1048576
gpgpu_n_shmem_insn = 24940324
gpgpu_n_tex_insn = 0
gpgpu_n_const_mem_insn = 0
gpgpu_n_param_mem_insn = 24613888
gpgpu_n_shmem_bkconflict = 0
gpgpu_n_cache_bkconflict = 0
gpgpu_n_intrawarp_mshr_merge = 0
gpgpu_n_cmem_portconflict = 4886
gpgpu_stall_shd_mem[c_mem][bk_conf] = 4886
gpgpu_stall_shd_mem[c_mem][mshr_rc] = 0
gpgpu_stall_shd_mem[c_mem][icnt_rc] = 0
gpgpu_stall_shd_mem[c_mem][data_port_stall] = 0
gpgpu_stall_shd_mem[t_mem][mshr_rc] = 0
gpgpu_stall_shd_mem[t_mem][icnt_rc] = 0
gpgpu_stall_shd_mem[t_mem][data_port_stall] = 0
gpgpu_stall_shd_mem[s_mem][bk_conf] = 0
gpgpu_stall_shd_mem[gl_mem][bk_conf] = 0
gpgpu_stall_shd_mem[gl_mem][coal_stall] = 324377
gpgpu_stall_shd_mem[gl_mem][data_port_stall] = 0
gpgpu_stall_shd_mem[g_mem_ld][mshr_rc] = 0
gpgpu_stall_shd_mem[g_mem_ld][icnt_rc] = 61025
gpgpu_stall_shd_mem[g_mem_ld][wb_icnt_rc] = 0
gpgpu_stall_shd_mem[g_mem_ld][wb_rsrv_fail] = 0
gpgpu_stall_shd_mem[g_mem_st][mshr_rc] = 0
gpgpu_stall_shd_mem[g_mem_st][icnt_rc] = 0
gpgpu_stall_shd_mem[g_mem_st][wb_icnt_rc] = 0
gpgpu_stall_shd_mem[g_mem_st][wb_rsrv_fail] = 0
gpgpu_stall_shd_mem[l_mem_ld][mshr_rc] = 0
gpgpu_stall_shd_mem[l_mem_ld][icnt_rc] = 0
gpgpu_stall_shd_mem[l_mem_ld][wb_icnt_rc] = 0
gpgpu_stall_shd_mem[l_mem_ld][wb_rsrv_fail] = 0
gpgpu_stall_shd_mem[l_mem_st][mshr_rc] = 0
gpgpu_stall_shd_mem[l_mem_st][icnt_rc] = 0
gpgpu_stall_shd_mem[l_mem_ld][wb_icnt_rc] = 0
gpgpu_stall_shd_mem[l_mem_ld][wb_rsrv_fail] = 0
gpu_reg_bank_conflict_stalls = 0
Warp Occupancy Distribution:
Stall:537352	W0_Idle:73313179	W0_Scoreboard:45657996	W1:0	W2:0	W3:0	W4:0	W5:8500	W6:0	W7:0	W8:28160	W9:0	W10:25600	W11:0	W12:12958	W13:8500	W14:714000	W15:0	W16:0	W17:0	W18:0	W19:0	W20:0	W21:0	W22:0	W23:0	W24:3517792	W25:0	W26:25600	W27:0	W28:3287550	W29:0	W30:0	W31:0	W32:7537784
traffic_breakdown_coretomem[CONST_ACC_R] = 448 {8:56,}
traffic_breakdown_coretomem[GLOBAL_ACC_R] = 2771648 {8:346456,}
traffic_breakdown_coretomem[GLOBAL_ACC_W] = 7856128 {40:44032,72:44032,136:21504,}
traffic_breakdown_coretomem[INST_ACC_R] = 2912 {8:364,}
traffic_breakdown_memtocore[CONST_ACC_R] = 4032 {72:56,}
traffic_breakdown_memtocore[GLOBAL_ACC_R] = 28785856 {40:114576,72:114576,136:117304,}
traffic_breakdown_memtocore[GLOBAL_ACC_W] = 876544 {8:109568,}
traffic_breakdown_memtocore[INST_ACC_R] = 49504 {136:364,}
maxmrqlatency = 540 
maxdqlatency = 0 
maxmflatency = 243881 
averagemflatency = 6018 
max_icnt2mem_latency = 243557 
max_icnt2sh_latency = 2583103 
mrq_lat_table:107921 	6440 	5960 	13840 	19627 	16507 	8845 	8747 	8276 	9 	0 	0 	0 	0 	0 	0 	0 	0 	0 	0 	0 	0 	0 	0 	0 	0 	0 	0 	0 	0 	0 	0 	
dq_lat_table:0 	0 	0 	0 	0 	0 	0 	0 	0 	0 	0 	0 	0 	0 	0 	0 	0 	0 	0 	0 	0 	0 	0 	0 	0 	0 	0 	0 	0 	0 	0 	0 	
mf_lat_table:0 	0 	0 	0 	0 	0 	0 	252752 	139566 	2826 	314 	3015 	3161 	6215 	13363 	27419 	7402 	47 	0 	0 	0 	0 	0 	0 	0 	0 	0 	0 	0 	0 	0 	0 	
icnt2mem_lat_table:0 	0 	222887 	40363 	4995 	2298 	112520 	11163 	1269 	40 	484 	2832 	3153 	6339 	13637 	27019 	7398 	47 	0 	0 	0 	0 	0 	0 	
icnt2sh_lat_table:0 	0 	98230 	157364 	84663 	6193 	62 	0 	0 	0 	0 	0 	0 	0 	0 	0 	0 	0 	12840 	14659 	63863 	18206 	0 	0 	
mf_lat_pw_table:0 	0 	0 	0 	0 	0 	0 	323 	89 	3 	4 	22 	23 	39 	82 	139 	68 	0 	0 	0 	0 	0 	0 	0 	0 	0 	0 	0 	0 	0 	0 	0 	
maximum concurrent accesses to same row:
dram[0]:        69        70        69        70        69        70        69        70        69        70        69        70        68        66        69        70 
dram[1]:        69        70        69        70        69        70        69        70        69        70        69        70        68        65        69        70 
dram[2]:        69        70        69        70        69        70        69        70        69        70        69        70        66        66        69        70 
dram[3]:        69        70        69        70        69        70        69        70        69        70        69        70        64        66        69        70 
dram[4]:        69        70        69        70        69        70        69        70        69        70        69        70        66        65        69        70 
dram[5]:        69        70        69        70        69        70        69        70        69        70        69        70        67        69        69        70 
dram[6]:        69        70        69        70        69        70        69        70        69        70        69        70        69        66        69        70 
dram[7]:        69        70        69        70        69        70        69        70        69        70        69        70        66        66        69        70 
dram[8]:        69        70        69        70        69        70        69        70        69        70        69        70        65        66        69        70 
dram[9]:        69        70        69        70        69        70        69        70        69        70        69        70        64        66        69        70 
dram[10]:        69        70        69        70        69        70        69        70        69        70        69        70        67        66        69        70 
maximum service time to same row:
dram[0]:    259027    259104    269789    270013    256635    256501    383132    382868    377430    377334    376792    248610    254732    254730    253451    253530 
dram[1]:    259165    259484    269978    269976    296875    296669    382867    382868    377548    377494    248539    248913    254718    254714    253460    253304 
dram[2]:    259128    259478    269799    269764    296005    296014    382809    382836    377556    377419    248618    248343    254726    254725    252889    252533 
dram[3]:    259171    259143    269761    269689    256386    256693    382830    382778    377310    377428    248263    248208    254601    254637    253443    253455 
dram[4]:    259383    259619    269627    269967    256542    256699    383038    382870    377542    377553    248148    248217    254669    254654    253457    253541 
dram[5]:    259027    259103    269875    269873    256636    256483    382865    382844    377452    377398    248157    251804    254732    254731    253463    253521 
dram[6]:    259198    259520    269794    269794    296873    296545    383231    382882    377430    377400    376319    245760    254721    254718    253457    253305 
dram[7]:    257646    259492    269758    269650    296673    296669    382790    382849    377446    377268    245675    245665    254725    254727    252939    252512 
dram[8]:    259159    259186    269628    269556    256532    256576    382863    382787    377329    377370    245566    245576    254600    254624    253433    253499 
dram[9]:    259365    259470    269629    269972    256425    256563    383040    382863    377284    377301    245579    245743    254549    254648    253456    253536 
dram[10]:    264397    263758    269869    269870    256823    256448    382836    382872    377262    377270    245712    249367    254675    254664    253472    253529 
average row accesses per activate:
dram[0]: 12.395349 12.090909 11.602151 10.939394 10.617647 10.910000 10.513762 10.785047 11.434343 11.330000 10.714286 10.089286 11.393939 11.274509 14.423077 12.988505 
dram[1]: 12.761905 11.888889 12.044944 12.367816 12.066667 11.648936 11.575758 10.351352 11.628866 11.978948 11.019608 10.518518 11.127451 11.915790 15.493151 13.914634 
dram[2]: 12.963414 12.430233 12.750000 12.250000 11.717391 11.670213 11.356436 12.736263 11.363636 11.649485 11.978724 11.196078 12.688889 12.588889 15.971831 14.818182 
dram[3]: 14.722222 14.391891 12.821428 13.425000 12.569767 12.188889 12.626373 13.372093 11.947369 13.045977 12.685393 12.117022 12.622222 12.644444 14.341772 15.465754 
dram[4]: 12.193182 11.943820 11.446809 11.478724 11.489362 13.119047 12.786517 12.887640 11.701031 11.773196 11.310000 11.107843 12.674157 12.700000 16.200001 14.538462 
dram[5]: 11.252631 11.637362 10.820000 10.760000 10.169811 10.339622 11.257425 10.738317 11.551021 11.117647 10.189189 10.698113 12.107527 10.801887 12.417583 12.439561 
dram[6]: 12.022472 10.938145 13.271605 12.670588 11.132653  9.750000 11.077670 11.009523 11.280000 12.042553 11.884211 10.698113 11.217822 11.704082 14.662337 13.376471 
dram[7]: 12.430233 12.963856 13.756411 13.134147 10.637255 11.204082 12.571428 13.011236 11.567010 11.494949 12.000000 11.420000 11.701031 12.193548 14.701299 14.430380 
dram[8]: 12.963414 12.181818 12.714286 13.794871 11.343750 11.224490 12.910112 13.056818 11.659794 11.434343 13.081395 12.402174 11.561225 12.863636 14.564102 14.225000 
dram[9]: 13.036586 13.287500 11.177083 10.607843 10.656863 11.265306 12.604396 13.795180 11.906250 12.413043 12.075269 11.612245 11.781250 12.965909 14.907895 13.865853 
dram[10]: 11.505377 11.910112 10.790000 10.860000 10.820000 11.060000 12.538462 11.326733 11.217822 11.038835 11.454545 11.247525 12.511111 12.391304 13.270588 12.897727 
average row locality = 196172/16290 = 12.042480
number of total memory accesses made:
dram[0]:         0         0         0         0         0         0         0         0         0         0         0         0         0         0         0         0 
dram[1]:         0         0         0         0         0         0         0         0         0         0         0         0         0         0         0         0 
dram[2]:         0         0         0         0         0         0         0         0         0         0         0         0         0         0         0         0 
dram[3]:         0         0         0         0         0         0         0         0         0         0         0         0         0         0         0         0 
dram[4]:         0         0         0         0         0         0         0         0         0         0         0         0         0         0         0         0 
dram[5]:         0         0         0         0         0         0         0         0         0         0         0         0         0         0         0         0 
dram[6]:         0         0         0         0         0         0         0         0         0         0         0         0         0         0         0         0 
dram[7]:         0         0         0         0         0         0         0         0         0         0         0         0         0         0         0         0 
dram[8]:         0         0         0         0         0         0         0         0         0         0         0         0         0         0         0         0 
dram[9]:         0         0         0         0         0         0         0         0         0         0         0         0         0         0         0         0 
dram[10]:         0         0         0         0         0         0         0         0         0         0         0         0         0         0         0         0 
total accesses: 0
min_bank_accesses = 0!
min_chip_accesses = 0!
number of total read accesses:
dram[0]:       561       560       560       560       560       560       560       560       560       560       548       548       560       560       560       560 
dram[1]:       560       560       560       560       560       560       560       560       560       560       549       549       560       560       560       560 
dram[2]:       560       560       560       560       560       560       560       560       560       560       549       549       560       560       560       560 
dram[3]:       560       560       560       560       560       560       560       560       560       560       549       549       560       560       560       560 
dram[4]:       560       560       560       560       560       560       560       560       560       560       549       549       560       560       561       561 
dram[5]:       560       560       560       560       560       560       560       560       560       560       548       548       560       560       561       561 
dram[6]:       560       560       560       560       560       560       560       560       560       560       548       548       560       560       561       561 
dram[7]:       560       560       560       560       560       560       560       560       560       560       548       548       560       560       561       561 
dram[8]:       560       560       560       560       560       560       560       560       560       560       548       548       560       560       561       561 
dram[9]:       560       560       560       560       560       560       560       560       560       560       548       548       560       560       561       561 
dram[10]:       560       560       560       560       560       560       560       560       560       560       548       548       560       560       561       560 
total reads: 98318
bank skew: 561/548 = 1.02
chip skew: 8940/8937 = 1.00
number of total write accesses:
dram[0]:       505       504       519       523       523       531       586       594       572       573       577       582       568       590       565       570 
dram[1]:       512       510       512       516       526       535       586       589       568       578       575       587       575       572       571       581 
dram[2]:       503       509       511       518       518       537       587       599       565       570       577       593       582       573       574       581 
dram[3]:       500       505       517       514       521       537       589       590       575       575       580       590       576       578       573       569 
dram[4]:       513       503       516       519       520       542       578       587       575       582       582       584       568       583       573       573 
dram[5]:       509       499       522       516       518       536       577       589       572       574       583       586       566       585       569       571 
dram[6]:       510       501       515       517       531       532       581       596       568       572       581       586       573       587       568       576 
dram[7]:       509       516       513       517       525       538       584       598       562       578       580       594       575       574       571       579 
dram[8]:       503       512       508       516       529       540       589       589       571       572       577       593       573       572       575       577 
dram[9]:       509       503       513       522       527       544       587       585       583       582       575       590       571       581       572       576 
dram[10]:       510       500       519       526       522       546       581       584       573       577       586       588       566       580       567       575 
total reads: 97854
bank skew: 599/499 = 1.20
chip skew: 8920/8872 = 1.01
average mf latency per bank:
dram[0]:      12343     12338     12170     12169     15756     15322     14950     15143     10897     10862     12535     12142     17154     17140     15604     15217
dram[1]:      12510     12566     12215     12097     15769     15662     15389     15544     10886     10700     12680     12300     17248     17510     15633     15206
dram[2]:      12813     12845     12044     11874     15699     15560     15525     15550     10703     10469     12754     12575     17523     17593     15575     15330
dram[3]:      13095     12901     11610     11613     15861     15325     15291     15074     10685     10530     12882     12767     17287     17348     15714     15193
dram[4]:      12904     12552     11406     11351     16360     16372     14948     14676     10814     10568     12681     12289     17450     17042     15363     15048
dram[5]:      13104     13269     11285     11545     16552     16081     14507     14610     11149     11160     11939     11657     17616     17560     14738     14440
dram[6]:      12933     12970     11804     11697     16461     16275     14797     14887     11173     10928     13163     13208     17497     17725     15174     14836
dram[7]:      13055     13030     11729     11644     16461     16527     15640     15810     10742     10339     13583     13249     18023     17940     15251     14958
dram[8]:      13384     13163     11610     11643     16377     15998     15667     15559     10293     10146     13687     13351     17716     17700     15275     14998
dram[9]:      12972     12608     11631     11527     15996     15680     14909     14678     10414     10223     13847     13579     17515     17345     15862     15476
dram[10]:      12251     12051     11574     11700     16081     15882     14642     14851     10681     10603     13662     13347     17414     16900     15627     15163
maximum mf latency per bank:
dram[0]:     129237    129100     91100     90442    124157    124372    123758    123719    123046    122891    130124    130129    129822    129838    243814    243834
dram[1]:     129151    129065     85941     85910    124378    124504    123748    123755    122986    123019    130123    130135    129950    130093    243800    243829
dram[2]:     129243    129071     85908     85245    124474    124367    123755    123764    123015    122995    130125    130132    129994    130152    243808    243831
dram[3]:     129066    128866     62995     63011    124353    124372    123760    123737    123069    123072    130133    130135    129945    130069    243807    243881
dram[4]:     128979    128986     88668     88652    124313    124414    123744    123755    123051    123004    130130    130134    129849    129903    243809    129597
dram[5]:     129183    129084     88540     88511    124214    124473    123562    123729    123015    122923    130127    130124    129833    129854    129626    129729
dram[6]:     129205    129141     88497     87839    124374    124506    123731    123756    123043    123003    130136    130152    129943    130021    129802    129816
dram[7]:     129252    129083     72881     72238    124405    124448    123783    124042    122982    123015    130130    130133    129945    130040    129722    129672
dram[8]:     129045    128868     63293     63177    124533    124349    123813    123828    123011    123071    130125    130163    129991    130071    129763    129718
dram[9]:     128962    128995     91273     91250    124404    124306    123724    123734    123050    122978    130136    130138    129810    129926    243764    243774
dram[10]:     123660    123637     91143     91115    124194    124305    123741    123799    123024    122964    130139    130142    129853    129877    243797    243810
Memory Partition 0: 
Cache L2_bank_000:
MSHR contents

Cache L2_bank_001:
MSHR contents

In Dram Latency Queue (total = 0): 
DRAM[0]: 16 bks, busW=4 BL=8 CL=12, tRRD=2 tCCD=6, tRCD=12 tRAS=28 tRP=12 tRC=40
n_cmd=4383944 n_nop=4324558 n_act=1567 n_pre=1551 n_req=17819 n_rd=35748 n_write=20520 bw_util=0.02567
n_activity=195421 dram_eff=0.5759
bk0: 2244a 4364298i bk1: 2240a 4362359i bk2: 2240a 4363107i bk3: 2240a 4361854i bk4: 2240a 4363622i bk5: 2240a 4361379i bk6: 2240a 4361368i bk7: 2240a 4360557i bk8: 2240a 4362671i bk9: 2240a 4360349i bk10: 2192a 4361975i bk11: 2192a 4360736i bk12: 2240a 4362962i bk13: 2240a 4361131i bk14: 2240a 4363041i bk15: 2240a 4361482i 
dram_util_bins: 0 0 0 0 0 0 0 0 0 0
dram_eff_bins: 0 0 0 0 0 0 0 0 0 0
mrqq: max=64 avg=0.257738
Memory Partition 1: 
Cache L2_bank_002:
MSHR contents

Cache L2_bank_003:
MSHR contents

In Dram Latency Queue (total = 0): 
DRAM[1]: 16 bks, busW=4 BL=8 CL=12, tRRD=2 tCCD=6, tRCD=12 tRAS=28 tRP=12 tRC=40
n_cmd=4383944 n_nop=4324729 n_act=1498 n_pre=1482 n_req=17831 n_rd=35752 n_write=20483 bw_util=0.02565
n_activity=194952 dram_eff=0.5769
bk0: 2240a 4364354i bk1: 2240a 4362445i bk2: 2240a 4364278i bk3: 2240a 4362684i bk4: 2240a 4363716i bk5: 2240a 4362310i bk6: 2240a 4362272i bk7: 2240a 4360892i bk8: 2240a 4362260i bk9: 2240a 4360612i bk10: 2196a 4362322i bk11: 2196a 4360826i bk12: 2240a 4362919i bk13: 2240a 4361448i bk14: 2240a 4362806i bk15: 2240a 4360978i 
dram_util_bins: 0 0 0 0 0 0 0 0 0 0
dram_eff_bins: 0 0 0 0 0 0 0 0 0 0
mrqq: max=64 avg=0.252501
Memory Partition 2: 
Cache L2_bank_004:
MSHR contents

Cache L2_bank_005:
MSHR contents

In Dram Latency Queue (total = 0): 
DRAM[2]: 16 bks, busW=4 BL=8 CL=12, tRRD=2 tCCD=6, tRCD=12 tRAS=28 tRP=12 tRC=40
n_cmd=4383944 n_nop=4324778 n_act=1438 n_pre=1422 n_req=17835 n_rd=35752 n_write=20554 bw_util=0.02569
n_activity=194293 dram_eff=0.5796
bk0: 2240a 4365026i bk1: 2240a 4362436i bk2: 2240a 4364065i bk3: 2240a 4362575i bk4: 2240a 4363202i bk5: 2240a 4362584i bk6: 2240a 4362447i bk7: 2240a 4361701i bk8: 2240a 4362852i bk9: 2240a 4361930i bk10: 2196a 4362521i bk11: 2196a 4361427i bk12: 2240a 4362228i bk13: 2240a 4360589i bk14: 2240a 4362349i bk15: 2240a 4361957i 
dram_util_bins: 0 0 0 0 0 0 0 0 0 0
dram_eff_bins: 0 0 0 0 0 0 0 0 0 0
mrqq: max=64 avg=0.250403
Memory Partition 3: 
Cache L2_bank_006:
MSHR contents

Cache L2_bank_007:
MSHR contents

In Dram Latency Queue (total = 0): 
DRAM[3]: 16 bks, busW=4 BL=8 CL=12, tRRD=2 tCCD=6, tRCD=12 tRAS=28 tRP=12 tRC=40
n_cmd=4383944 n_nop=4324938 n_act=1360 n_pre=1344 n_req=17827 n_rd=35752 n_write=20550 bw_util=0.02569
n_activity=195074 dram_eff=0.5772
bk0: 2240a 4364865i bk1: 2240a 4363535i bk2: 2240a 4364217i bk3: 2240a 4363430i bk4: 2240a 4364215i bk5: 2240a 4363211i bk6: 2240a 4362253i bk7: 2240a 4361476i bk8: 2240a 4362612i bk9: 2240a 4361307i bk10: 2196a 4362857i bk11: 2196a 4361797i bk12: 2240a 4362571i bk13: 2240a 4361223i bk14: 2240a 4363166i bk15: 2240a 4361740i 
dram_util_bins: 0 0 0 0 0 0 0 0 0 0
dram_eff_bins: 0 0 0 0 0 0 0 0 0 0
mrqq: max=64 avg=0.25081
Memory Partition 4: 
Cache L2_bank_008:
MSHR contents

Cache L2_bank_009:
MSHR contents

In Dram Latency Queue (total = 0): 
DRAM[4]: 16 bks, busW=4 BL=8 CL=12, tRRD=2 tCCD=6, tRCD=12 tRAS=28 tRP=12 tRC=40
n_cmd=4383944 n_nop=4324766 n_act=1444 n_pre=1428 n_req=17838 n_rd=35760 n_write=20546 bw_util=0.02569
n_activity=194746 dram_eff=0.5783
bk0: 2240a 4363424i bk1: 2240a 4362094i bk2: 2240a 4364315i bk3: 2240a 4363017i bk4: 2240a 4364278i bk5: 2240a 4362457i bk6: 2240a 4362968i bk7: 2240a 4361073i bk8: 2240a 4362415i bk9: 2240a 4361583i bk10: 2196a 4361733i bk11: 2196a 4360414i bk12: 2240a 4363462i bk13: 2240a 4362134i bk14: 2244a 4363275i bk15: 2244a 4361457i 
dram_util_bins: 0 0 0 0 0 0 0 0 0 0
dram_eff_bins: 0 0 0 0 0 0 0 0 0 0
mrqq: max=64 avg=0.252883
Memory Partition 5: 
Cache L2_bank_010:
MSHR contents

Cache L2_bank_011:
MSHR contents

In Dram Latency Queue (total = 0): 
DRAM[5]: 16 bks, busW=4 BL=8 CL=12, tRRD=2 tCCD=6, tRCD=12 tRAS=28 tRP=12 tRC=40
n_cmd=4383944 n_nop=4324475 n_act=1604 n_pre=1588 n_req=17810 n_rd=35752 n_write=20525 bw_util=0.02567
n_activity=195896 dram_eff=0.5746
bk0: 2240a 4363397i bk1: 2240a 4362813i bk2: 2240a 4363769i bk3: 2240a 4362568i bk4: 2240a 4363036i bk5: 2240a 4361308i bk6: 2240a 4362173i bk7: 2240a 4360810i bk8: 2240a 4362357i bk9: 2240a 4360687i bk10: 2192a 4362235i bk11: 2192a 4361450i bk12: 2240a 4363081i bk13: 2240a 4360424i bk14: 2244a 4362442i bk15: 2244a 4361360i 
dram_util_bins: 0 0 0 0 0 0 0 0 0 0
dram_eff_bins: 0 0 0 0 0 0 0 0 0 0
mrqq: max=64 avg=0.249601
Memory Partition 6: 
Cache L2_bank_012:
MSHR contents

Cache L2_bank_013:
MSHR contents

In Dram Latency Queue (total = 0): 
DRAM[6]: 16 bks, busW=4 BL=8 CL=12, tRRD=2 tCCD=6, tRCD=12 tRAS=28 tRP=12 tRC=40
n_cmd=4383944 n_nop=4324660 n_act=1526 n_pre=1510 n_req=17832 n_rd=35752 n_write=20496 bw_util=0.02566
n_activity=194392 dram_eff=0.5787
bk0: 2240a 4363708i bk1: 2240a 4362935i bk2: 2240a 4364245i bk3: 2240a 4363078i bk4: 2240a 4363047i bk5: 2240a 4360884i bk6: 2240a 4361858i bk7: 2240a 4360392i bk8: 2240a 4362404i bk9: 2240a 4360859i bk10: 2192a 4362506i bk11: 2192a 4361582i bk12: 2240a 4362127i bk13: 2240a 4360961i bk14: 2244a 4362592i bk15: 2244a 4361310i 
dram_util_bins: 0 0 0 0 0 0 0 0 0 0
dram_eff_bins: 0 0 0 0 0 0 0 0 0 0
mrqq: max=64 avg=0.251343
Memory Partition 7: 
Cache L2_bank_014:
MSHR contents

Cache L2_bank_015:
MSHR contents

In Dram Latency Queue (total = 0): 
DRAM[7]: 16 bks, busW=4 BL=8 CL=12, tRRD=2 tCCD=6, tRCD=12 tRAS=28 tRP=12 tRC=40
n_cmd=4383944 n_nop=4324808 n_act=1443 n_pre=1428 n_req=17851 n_rd=35752 n_write=20513 bw_util=0.02567
n_activity=194996 dram_eff=0.5771
bk0: 2240a 4364597i bk1: 2240a 4362658i bk2: 2240a 4364032i bk3: 2240a 4362566i bk4: 2240a 4363068i bk5: 2240a 4361859i bk6: 2240a 4362276i bk7: 2240a 4361606i bk8: 2240a 4362592i bk9: 2240a 4361315i bk10: 2192a 4362730i bk11: 2192a 4361674i bk12: 2240a 4362938i bk13: 2240a 4361112i bk14: 2244a 4362990i bk15: 2244a 4361704i 
dram_util_bins: 0 0 0 0 0 0 0 0 0 0
dram_eff_bins: 0 0 0 0 0 0 0 0 0 0
mrqq: max=64 avg=0.252871
Memory Partition 8: 
Cache L2_bank_016:
MSHR contents

Cache L2_bank_017:
MSHR contents

In Dram Latency Queue (total = 0): 
DRAM[8]: 16 bks, busW=4 BL=8 CL=12, tRRD=2 tCCD=6, tRCD=12 tRAS=28 tRP=12 tRC=40
n_cmd=4383944 n_nop=4324793 n_act=1421 n_pre=1405 n_req=17834 n_rd=35752 n_write=20573 bw_util=0.0257
n_activity=195259 dram_eff=0.5769
bk0: 2240a 4364962i bk1: 2240a 4363032i bk2: 2240a 4364364i bk3: 2240a 4363772i bk4: 2240a 4364344i bk5: 2240a 4362308i bk6: 2240a 4362232i bk7: 2240a 4361924i bk8: 2240a 4362060i bk9: 2240a 4360712i bk10: 2192a 4362914i bk11: 2192a 4361500i bk12: 2240a 4362348i bk13: 2240a 4362156i bk14: 2244a 4362645i bk15: 2244a 4361622i 
dram_util_bins: 0 0 0 0 0 0 0 0 0 0
dram_eff_bins: 0 0 0 0 0 0 0 0 0 0
mrqq: max=64 avg=0.25045
Memory Partition 9: 
Cache L2_bank_018:
MSHR contents

Cache L2_bank_019:
MSHR contents

In Dram Latency Queue (total = 0): 
DRAM[9]: 16 bks, busW=4 BL=8 CL=12, tRRD=2 tCCD=6, tRCD=12 tRAS=28 tRP=12 tRC=40
n_cmd=4383944 n_nop=4324706 n_act=1455 n_pre=1439 n_req=17858 n_rd=35752 n_write=20592 bw_util=0.0257
n_activity=195090 dram_eff=0.5776
bk0: 2240a 4364404i bk1: 2240a 4363807i bk2: 2240a 4363965i bk3: 2240a 4362627i bk4: 2240a 4363127i bk5: 2240a 4361827i bk6: 2240a 4362302i bk7: 2240a 4362052i bk8: 2240a 4362708i bk9: 2240a 4362146i bk10: 2192a 4363036i bk11: 2192a 4361011i bk12: 2240a 4362899i bk13: 2240a 4362070i bk14: 2244a 4362732i bk15: 2244a 4361314i 
dram_util_bins: 0 0 0 0 0 0 0 0 0 0
dram_eff_bins: 0 0 0 0 0 0 0 0 0 0
mrqq: max=64 avg=0.252005
Memory Partition 10: 
Cache L2_bank_020:
MSHR contents

Cache L2_bank_021:
MSHR contents

In Dram Latency Queue (total = 0): 
DRAM[10]: 16 bks, busW=4 BL=8 CL=12, tRRD=2 tCCD=6, tRCD=12 tRAS=28 tRP=12 tRC=40
n_cmd=4383944 n_nop=4324582 n_act=1531 n_pre=1517 n_req=17837 n_rd=35748 n_write=20566 bw_util=0.02569
n_activity=195309 dram_eff=0.5767
bk0: 2240a 4363490i bk1: 2240a 4362159i bk2: 2240a 4363555i bk3: 2240a 4361631i bk4: 2240a 4363450i bk5: 2240a 4361138i bk6: 2240a 4362693i bk7: 2240a 4360703i bk8: 2240a 4362621i bk9: 2240a 4360749i bk10: 2192a 4362169i bk11: 2192a 4361579i bk12: 2240a 4363149i bk13: 2240a 4361367i bk14: 2244a 4362462i bk15: 2240a 4361324i 
dram_util_bins: 0 0 0 0 0 0 0 0 0 0
dram_eff_bins: 0 0 0 0 0 0 0 0 0 0
mrqq: max=64 avg=0.254855

========= L2 cache stats =========
L2_cache_bank[0]: Access = 20620, Miss = 4469, Miss_rate = 0.217, Pending_hits = 7957, Reservation_fails = 5
L2_cache_bank[1]: Access = 20905, Miss = 4468, Miss_rate = 0.214, Pending_hits = 8162, Reservation_fails = 8
L2_cache_bank[2]: Access = 20570, Miss = 4469, Miss_rate = 0.217, Pending_hits = 7978, Reservation_fails = 7
L2_cache_bank[3]: Access = 20910, Miss = 4469, Miss_rate = 0.214, Pending_hits = 8182, Reservation_fails = 3
L2_cache_bank[4]: Access = 20562, Miss = 4469, Miss_rate = 0.217, Pending_hits = 7895, Reservation_fails = 7
L2_cache_bank[5]: Access = 20901, Miss = 4469, Miss_rate = 0.214, Pending_hits = 8181, Reservation_fails = 7
L2_cache_bank[6]: Access = 20556, Miss = 4469, Miss_rate = 0.217, Pending_hits = 8000, Reservation_fails = 9
L2_cache_bank[7]: Access = 20897, Miss = 4469, Miss_rate = 0.214, Pending_hits = 8122, Reservation_fails = 8
L2_cache_bank[8]: Access = 20582, Miss = 4470, Miss_rate = 0.217, Pending_hits = 7958, Reservation_fails = 12
L2_cache_bank[9]: Access = 20926, Miss = 4470, Miss_rate = 0.214, Pending_hits = 8128, Reservation_fails = 3
L2_cache_bank[10]: Access = 20583, Miss = 4469, Miss_rate = 0.217, Pending_hits = 7951, Reservation_fails = 8
L2_cache_bank[11]: Access = 20925, Miss = 4469, Miss_rate = 0.214, Pending_hits = 8173, Reservation_fails = 10
L2_cache_bank[12]: Access = 20590, Miss = 4469, Miss_rate = 0.217, Pending_hits = 8003, Reservation_fails = 8
L2_cache_bank[13]: Access = 20929, Miss = 4469, Miss_rate = 0.214, Pending_hits = 8219, Reservation_fails = 9
L2_cache_bank[14]: Access = 20586, Miss = 4469, Miss_rate = 0.217, Pending_hits = 7920, Reservation_fails = 11
L2_cache_bank[15]: Access = 20925, Miss = 4469, Miss_rate = 0.214, Pending_hits = 8174, Reservation_fails = 9
L2_cache_bank[16]: Access = 20580, Miss = 4469, Miss_rate = 0.217, Pending_hits = 7929, Reservation_fails = 6
L2_cache_bank[17]: Access = 20920, Miss = 4469, Miss_rate = 0.214, Pending_hits = 8241, Reservation_fails = 13
L2_cache_bank[18]: Access = 20578, Miss = 4469, Miss_rate = 0.217, Pending_hits = 7994, Reservation_fails = 13
L2_cache_bank[19]: Access = 20921, Miss = 4469, Miss_rate = 0.214, Pending_hits = 8121, Reservation_fails = 7
L2_cache_bank[20]: Access = 20581, Miss = 4469, Miss_rate = 0.217, Pending_hits = 7983, Reservation_fails = 6
L2_cache_bank[21]: Access = 20897, Miss = 4468, Miss_rate = 0.214, Pending_hits = 8110, Reservation_fails = 7
L2_total_cache_accesses = 456444
L2_total_cache_misses = 98318
L2_total_cache_miss_rate = 0.2154
L2_total_cache_pending_hits = 177381
L2_total_cache_reservation_fails = 176
L2_total_cache_breakdown:
	L2_cache_stats_breakdown[GLOBAL_ACC_R][HIT] = 155252
	L2_cache_stats_breakdown[GLOBAL_ACC_R][HIT_RESERVED] = 125668
	L2_cache_stats_breakdown[GLOBAL_ACC_R][MISS] = 65536
	L2_cache_stats_breakdown[GLOBAL_ACC_R][RESERVATION_FAIL] = 0
	L2_cache_stats_breakdown[LOCAL_ACC_R][HIT] = 0
	L2_cache_stats_breakdown[LOCAL_ACC_R][HIT_RESERVED] = 0
	L2_cache_stats_breakdown[LOCAL_ACC_R][MISS] = 0
	L2_cache_stats_breakdown[LOCAL_ACC_R][RESERVATION_FAIL] = 0
	L2_cache_stats_breakdown[CONST_ACC_R][HIT] = 28
	L2_cache_stats_breakdown[CONST_ACC_R][HIT_RESERVED] = 27
	L2_cache_stats_breakdown[CONST_ACC_R][MISS] = 1
	L2_cache_stats_breakdown[CONST_ACC_R][RESERVATION_FAIL] = 0
	L2_cache_stats_breakdown[TEXTURE_ACC_R][HIT] = 0
	L2_cache_stats_breakdown[TEXTURE_ACC_R][HIT_RESERVED] = 0
	L2_cache_stats_breakdown[TEXTURE_ACC_R][MISS] = 0
	L2_cache_stats_breakdown[TEXTURE_ACC_R][RESERVATION_FAIL] = 0
	L2_cache_stats_breakdown[GLOBAL_ACC_W][HIT] = 25455
	L2_cache_stats_breakdown[GLOBAL_ACC_W][HIT_RESERVED] = 51345
	L2_cache_stats_breakdown[GLOBAL_ACC_W][MISS] = 32768
	L2_cache_stats_breakdown[GLOBAL_ACC_W][RESERVATION_FAIL] = 176
	L2_cache_stats_breakdown[LOCAL_ACC_W][HIT] = 0
	L2_cache_stats_breakdown[LOCAL_ACC_W][HIT_RESERVED] = 0
	L2_cache_stats_breakdown[LOCAL_ACC_W][MISS] = 0
	L2_cache_stats_breakdown[LOCAL_ACC_W][RESERVATION_FAIL] = 0
	L2_cache_stats_breakdown[L1_WRBK_ACC][HIT] = 0
	L2_cache_stats_breakdown[L1_WRBK_ACC][HIT_RESERVED] = 0
	L2_cache_stats_breakdown[L1_WRBK_ACC][MISS] = 0
	L2_cache_stats_breakdown[L1_WRBK_ACC][RESERVATION_FAIL] = 0
	L2_cache_stats_breakdown[L2_WRBK_ACC][HIT] = 0
	L2_cache_stats_breakdown[L2_WRBK_ACC][HIT_RESERVED] = 0
	L2_cache_stats_breakdown[L2_WRBK_ACC][MISS] = 0
	L2_cache_stats_breakdown[L2_WRBK_ACC][RESERVATION_FAIL] = 0
	L2_cache_stats_breakdown[INST_ACC_R][HIT] = 10
	L2_cache_stats_breakdown[INST_ACC_R][HIT_RESERVED] = 341
	L2_cache_stats_breakdown[INST_ACC_R][MISS] = 13
	L2_cache_stats_breakdown[INST_ACC_R][RESERVATION_FAIL] = 0
	L2_cache_stats_breakdown[L1_WR_ALLOC_R][HIT] = 0
	L2_cache_stats_breakdown[L1_WR_ALLOC_R][HIT_RESERVED] = 0
	L2_cache_stats_breakdown[L1_WR_ALLOC_R][MISS] = 0
	L2_cache_stats_breakdown[L1_WR_ALLOC_R][RESERVATION_FAIL] = 0
	L2_cache_stats_breakdown[L2_WR_ALLOC_R][HIT] = 0
	L2_cache_stats_breakdown[L2_WR_ALLOC_R][HIT_RESERVED] = 0
	L2_cache_stats_breakdown[L2_WR_ALLOC_R][MISS] = 0
	L2_cache_stats_breakdown[L2_WR_ALLOC_R][RESERVATION_FAIL] = 0
	L2_cache_stats_breakdown[GLOBAL_ACC_R][TOTAL_ACCESS] = 346456
	L2_cache_stats_breakdown[CONST_ACC_R][TOTAL_ACCESS] = 56
[...]
F: 11539853----T: 11542458 	 St: c0340000 Sz: 4096 	 Sm: 0 	 T: memcpy_h2d(1.758947)
F: 11542458----T: 11545063 	 St: c0341000 Sz: 4096 	 Sm: 0 	 T: memcpy_h2d(1.758947)
F: 11545063----T: 11547668 	 St: c0342000 Sz: 4096 	 Sm: 0 	 T: memcpy_h2d(1.758947)
F: 11547668----T: 11550273 	 St: c0343000 Sz: 4096 	 Sm: 0 	 T: memcpy_h2d(1.758947)
F: 11550273----T: 11552878 	 St: c0344000 Sz: 4096 	 Sm: 0 	 T: memcpy_h2d(1.758947)
F: 11552878----T: 11555483 	 St: c0345000 Sz: 4096 	 Sm: 0 	 T: memcpy_h2d(1.758947)
F: 11555483----T: 11558088 	 St: c0346000 Sz: 4096 	 Sm: 0 	 T: memcpy_h2d(1.758947)
F: 11558088----T: 11560693 	 St: c0347000 Sz: 4096 	 Sm: 0 	 T: memcpy_h2d(1.758947)
F: 11560693----T: 11563298 	 St: c0348000 Sz: 4096 	 Sm: 0 	 T: memcpy_h2d(1.758947)
F: 11563298----T: 11565903 	 St: c0349000 Sz: 4096 	 Sm: 0 	 T: memcpy_h2d(1.758947)
F: 11565903----T: 11568508 	 St: c034a000 Sz: 4096 	 Sm: 0 	 T: memcpy_h2d(1.758947)
F: 11568508----T: 11571113 	 St: c034b000 Sz: 4096 	 Sm: 0 	 T: memcpy_h2d(1.758947)
F: 11571113----T: 11573718 	 St: c034c000 Sz: 4096 	 Sm: 0 	 T: memcpy_h2d(1.758947)
F: 11573718----T: 11576323 	 St: c034d000 Sz: 4096 	 Sm: 0 	 T: memcpy_h2d(1.758947)
F: 11576323----T: 11578928 	 St: c0352000 Sz: 4096 	 Sm: 0 	 T: memcpy_h2d(1.758947)
F: 11578928----T: 11581533 	 St: c0353000 Sz: 4096 	 Sm: 0 	 T: memcpy_h2d(1.758947)
F: 11581533----T: 11584138 	 St: c034e000 Sz: 4096 	 Sm: 0 	 T: memcpy_h2d(1.758947)
F: 11584138----T: 11586743 	 St: c034f000 Sz: 4096 	 Sm: 0 	 T: memcpy_h2d(1.758947)
F: 11586743----T: 11589348 	 St: c0350000 Sz: 4096 	 Sm: 0 	 T: memcpy_h2d(1.758947)
F: 11589348----T: 11591953 	 St: c0351000 Sz: 4096 	 Sm: 0 	 T: memcpy_h2d(1.758947)
F: 11591953----T: 11594558 	 St: c0354000 Sz: 4096 	 Sm: 0 	 T: memcpy_h2d(1.758947)
F: 11594558----T: 11597163 	 St: c0355000 Sz: 4096 	 Sm: 0 	 T: memcpy_h2d(1.758947)
F: 11597163----T: 11599768 	 St: c0356000 Sz: 4096 	 Sm: 0 	 T: memcpy_h2d(1.758947)
F: 11599768----T: 11602373 	 St: c0357000 Sz: 4096 	 Sm: 0 	 T: memcpy_h2d(1.758947)
F: 11602373----T: 11604978 	 St: c035a000 Sz: 4096 	 Sm: 0 	 T: memcpy_h2d(1.758947)
F: 11604978----T: 11607583 	 St: c035b000 Sz: 4096 	 Sm: 0 	 T: memcpy_h2d(1.758947)
F: 11607583----T: 11610188 	 St: c035e000 Sz: 4096 	 Sm: 0 	 T: memcpy_h2d(1.758947)
F: 11610188----T: 11612793 	 St: c035f000 Sz: 4096 	 Sm: 0 	 T: memcpy_h2d(1.758947)
F: 11612793----T: 11615398 	 St: c0358000 Sz: 4096 	 Sm: 0 	 T: memcpy_h2d(1.758947)
F: 11615398----T: 11618003 	 St: c0359000 Sz: 4096 	 Sm: 0 	 T: memcpy_h2d(1.758947)
F: 11618003----T: 11620608 	 St: c035c000 Sz: 4096 	 Sm: 0 	 T: memcpy_h2d(1.758947)
F: 11620608----T: 11623213 	 St: c035d000 Sz: 4096 	 Sm: 0 	 T: memcpy_h2d(1.758947)
F: 11630426----T: 11633031 	 St: c0360000 Sz: 4096 	 Sm: 0 	 T: memcpy_h2d(1.758947)
F: 11630434----T: 11691741 	 St: c0480000 Sz: 524288 	 Sm: 0 	 T: write_back(41.395679)
F: 11633031----T: 11635636 	 St: c0361000 Sz: 4096 	 Sm: 0 	 T: memcpy_h2d(1.758947)
F: 11635636----T: 11638241 	 St: c0362000 Sz: 4096 	 Sm: 0 	 T: memcpy_h2d(1.758947)
F: 11638241----T: 11640846 	 St: c0363000 Sz: 4096 	 Sm: 0 	 T: memcpy_h2d(1.758947)
F: 11640846----T: 11643451 	 St: c0364000 Sz: 4096 	 Sm: 0 	 T: memcpy_h2d(1.758947)
F: 11643451----T: 11646056 	 St: c0365000 Sz: 4096 	 Sm: 0 	 T: memcpy_h2d(1.758947)
F: 11646056----T: 11648661 	 St: c0366000 Sz: 4096 	 Sm: 0 	 T: memcpy_h2d(1.758947)
F: 11648661----T: 11651266 	 St: c0367000 Sz: 4096 	 Sm: 0 	 T: memcpy_h2d(1.758947)
F: 11651266----T: 11653871 	 St: c0368000 Sz: 4096 	 Sm: 0 	 T: memcpy_h2d(1.758947)
F: 11653871----T: 11656476 	 St: c036a000 Sz: 4096 	 Sm: 0 	 T: memcpy_h2d(1.758947)
F: 11656476----T: 11659081 	 St: c0369000 Sz: 4096 	 Sm: 0 	 T: memcpy_h2d(1.758947)
F: 11659081----T: 11661686 	 St: c036b000 Sz: 4096 	 Sm: 0 	 T: memcpy_h2d(1.758947)
F: 11661686----T: 11664291 	 St: c036c000 Sz: 4096 	 Sm: 0 	 T: memcpy_h2d(1.758947)
F: 11664291----T: 11666896 	 St: c036d000 Sz: 4096 	 Sm: 0 	 T: memcpy_h2d(1.758947)
F: 11666896----T: 11669501 	 St: c036e000 Sz: 4096 	 Sm: 0 	 T: memcpy_h2d(1.758947)
F: 11669501----T: 11672106 	 St: c036f000 Sz: 4096 	 Sm: 0 	 T: memcpy_h2d(1.758947)
F: 11672106----T: 11674711 	 St: c0370000 Sz: 4096 	 Sm: 0 	 T: memcpy_h2d(1.758947)
F: 11674711----T: 11677316 	 St: c0371000 Sz: 4096 	 Sm: 0 	 T: memcpy_h2d(1.758947)
F: 11677316----T: 11679921 	 St: c0376000 Sz: 4096 	 Sm: 0 	 T: memcpy_h2d(1.758947)
F: 11679921----T: 11682526 	 St: c0377000 Sz: 4096 	 Sm: 0 	 T: memcpy_h2d(1.758947)
F: 11682526----T: 11685131 	 St: c0372000 Sz: 4096 	 Sm: 0 	 T: memcpy_h2d(1.758947)
F: 11685131----T: 11687736 	 St: c0373000 Sz: 4096 	 Sm: 0 	 T: memcpy_h2d(1.758947)
F: 11687736----T: 11690341 	 St: c0374000 Sz: 4096 	 Sm: 0 	 T: memcpy_h2d(1.758947)
F: 11690341----T: 11692946 	 St: c0375000 Sz: 4096 	 Sm: 0 	 T: memcpy_h2d(1.758947)
F: 11692946----T: 11695551 	 St: c0380000 Sz: 4096 	 Sm: 0 	 T: memcpy_h2d(1.758947)
F: 11695551----T: 11698156 	 St: c0381000 Sz: 4096 	 Sm: 0 	 T: memcpy_h2d(1.758947)
F: 11698156----T: 11700761 	 St: c0378000 Sz: 4096 	 Sm: 0 	 T: memcpy_h2d(1.758947)
F: 11700761----T: 11703366 	 St: c0379000 Sz: 4096 	 Sm: 0 	 T: memcpy_h2d(1.758947)
F: 11703366----T: 11705971 	 St: c037a000 Sz: 4096 	 Sm: 0 	 T: memcpy_h2d(1.758947)
F: 11705971----T: 11708576 	 St: c037b000 Sz: 4096 	 Sm: 0 	 T: memcpy_h2d(1.758947)
F: 11708576----T: 11711181 	 St: c037c000 Sz: 4096 	 Sm: 0 	 T: memcpy_h2d(1.758947)
F: 11711181----T: 11713786 	 St: c037d000 Sz: 4096 	 Sm: 0 	 T: memcpy_h2d(1.758947)
F: 11713786----T: 11716391 	 St: c037e000 Sz: 4096 	 Sm: 0 	 T: memcpy_h2d(1.758947)
F: 11716391----T: 11718996 	 St: c037f000 Sz: 4096 	 Sm: 0 	 T: memcpy_h2d(1.758947)
F: 11718996----T: 11721601 	 St: c0382000 Sz: 4096 	 Sm: 0 	 T: memcpy_h2d(1.758947)
F: 11721601----T: 11724206 	 St: c0383000 Sz: 4096 	 Sm: 0 	 T: memcpy_h2d(1.758947)
F: 11731418----T: 11734023 	 St: c0384000 Sz: 4096 	 Sm: 0 	 T: memcpy_h2d(1.758947)
F: 11734023----T: 11736628 	 St: c0386000 Sz: 4096 	 Sm: 0 	 T: memcpy_h2d(1.758947)
F: 11736628----T: 11739233 	 St: c0385000 Sz: 4096 	 Sm: 0 	 T: memcpy_h2d(1.758947)
F: 11739233----T: 11741838 	 St: c0387000 Sz: 4096 	 Sm: 0 	 T: memcpy_h2d(1.758947)
F: 11741838----T: 11744443 	 St: c0388000 Sz: 4096 	 Sm: 0 	 T: memcpy_h2d(1.758947)
F: 11744443----T: 11747048 	 St: c038a000 Sz: 4096 	 Sm: 0 	 T: memcpy_h2d(1.758947)
F: 11747048----T: 11749653 	 St: c0389000 Sz: 4096 	 Sm: 0 	 T: memcpy_h2d(1.758947)
F: 11749653----T: 11752258 	 St: c038b000 Sz: 4096 	 Sm: 0 	 T: memcpy_h2d(1.758947)
F: 11752258----T: 11754863 	 St: c038c000 Sz: 4096 	 Sm: 0 	 T: memcpy_h2d(1.758947)
F: 11754863----T: 11757468 	 St: c038e000 Sz: 4096 	 Sm: 0 	 T: memcpy_h2d(1.758947)
F: 11757468----T: 11760073 	 St: c038d000 Sz: 4096 	 Sm: 0 	 T: memcpy_h2d(1.758947)
F: 11760073----T: 11762678 	 St: c038f000 Sz: 4096 	 Sm: 0 	 T: memcpy_h2d(1.758947)
F: 11762678----T: 11765283 	 St: c0390000 Sz: 4096 	 Sm: 0 	 T: memcpy_h2d(1.758947)
F: 11765283----T: 11767888 	 St: c0391000 Sz: 4096 	 Sm: 0 	 T: memcpy_h2d(1.758947)
F: 11767888----T: 11770493 	 St: c0392000 Sz: 4096 	 Sm: 0 	 T: memcpy_h2d(1.758947)
F: 11770493----T: 11773098 	 St: c0393000 Sz: 4096 	 Sm: 0 	 T: memcpy_h2d(1.758947)
F: 11773098----T: 11775703 	 St: c0394000 Sz: 4096 	 Sm: 0 	 T: memcpy_h2d(1.758947)
F: 11775703----T: 11778308 	 St: c0395000 Sz: 4096 	 Sm: 0 	 T: memcpy_h2d(1.758947)
F: 11778308----T: 11780913 	 St: c0396000 Sz: 4096 	 Sm: 0 	 T: memcpy_h2d(1.758947)
F: 11780913----T: 11783518 	 St: c0397000 Sz: 4096 	 Sm: 0 	 T: memcpy_h2d(1.758947)
F: 11783518----T: 11786123 	 St: c0398000 Sz: 4096 	 Sm: 0 	 T: memcpy_h2d(1.758947)
F: 11786123----T: 11788728 	 St: c0399000 Sz: 4096 	 Sm: 0 	 T: memcpy_h2d(1.758947)
F: 11788728----T: 11791333 	 St: c039a000 Sz: 4096 	 Sm: 0 	 T: memcpy_h2d(1.758947)
F: 11791333----T: 11793938 	 St: c039b000 Sz: 4096 	 Sm: 0 	 T: memcpy_h2d(1.758947)
F: 11793938----T: 11796543 	 St: c039c000 Sz: 4096 	 Sm: 0 	 T: memcpy_h2d(1.758947)
F: 11796543----T: 11799148 	 St: c039d000 Sz: 4096 	 Sm: 0 	 T: memcpy_h2d(1.758947)
F: 11799148----T: 11801753 	 St: c03a0000 Sz: 4096 	 Sm: 0 	 T: memcpy_h2d(1.758947)
F: 11801753----T: 11804358 	 St: c03a1000 Sz: 4096 	 Sm: 0 	 T: memcpy_h2d(1.758947)
F: 11804358----T: 11806963 	 St: c03a2000 Sz: 4096 	 Sm: 0 	 T: memcpy_h2d(1.758947)
F: 11806963----T: 11809568 	 St: c03a3000 Sz: 4096 	 Sm: 0 	 T: memcpy_h2d(1.758947)
F: 11809568----T: 11812173 	 St: c03a4000 Sz: 4096 	 Sm: 0 	 T: memcpy_h2d(1.758947)
F: 11812173----T: 11814778 	 St: c03a5000 Sz: 4096 	 Sm: 0 	 T: memcpy_h2d(1.758947)
F: 11814778----T: 11817383 	 St: c03a6000 Sz: 4096 	 Sm: 0 	 T: memcpy_h2d(1.758947)
F: 11817383----T: 11819988 	 St: c03a7000 Sz: 4096 	 Sm: 0 	 T: memcpy_h2d(1.758947)
F: 11819988----T: 11822593 	 St: c039e000 Sz: 4096 	 Sm: 0 	 T: memcpy_h2d(1.758947)
F: 11822593----T: 11825198 	 St: c039f000 Sz: 4096 	 Sm: 0 	 T: memcpy_h2d(1.758947)
F: 11832442----T: 11835047 	 St: c03a8000 Sz: 4096 	 Sm: 0 	 T: memcpy_h2d(1.758947)
F: 11835047----T: 11837652 	 St: c03a9000 Sz: 4096 	 Sm: 0 	 T: memcpy_h2d(1.758947)
F: 11837652----T: 11840257 	 St: c03aa000 Sz: 4096 	 Sm: 0 	 T: memcpy_h2d(1.758947)
F: 11840257----T: 11842862 	 St: c03ab000 Sz: 4096 	 Sm: 0 	 T: memcpy_h2d(1.758947)
F: 11842862----T: 11845467 	 St: c03ae000 Sz: 4096 	 Sm: 0 	 T: memcpy_h2d(1.758947)
F: 11845467----T: 11848072 	 St: c03af000 Sz: 4096 	 Sm: 0 	 T: memcpy_h2d(1.758947)
F: 11848072----T: 11850677 	 St: c03b0000 Sz: 4096 	 Sm: 0 	 T: memcpy_h2d(1.758947)
F: 11850677----T: 11853282 	 St: c03b1000 Sz: 4096 	 Sm: 0 	 T: memcpy_h2d(1.758947)
F: 11853282----T: 11855887 	 St: c03ac000 Sz: 4096 	 Sm: 0 	 T: memcpy_h2d(1.758947)
F: 11855887----T: 11858492 	 St: c03ad000 Sz: 4096 	 Sm: 0 	 T: memcpy_h2d(1.758947)
F: 11858492----T: 11861097 	 St: c03b2000 Sz: 4096 	 Sm: 0 	 T: memcpy_h2d(1.758947)
F: 11861097----T: 11863702 	 St: c03b3000 Sz: 4096 	 Sm: 0 	 T: memcpy_h2d(1.758947)
F: 11863702----T: 11866307 	 St: c03b4000 Sz: 4096 	 Sm: 0 	 T: memcpy_h2d(1.758947)
F: 11866307----T: 11868912 	 St: c03b5000 Sz: 4096 	 Sm: 0 	 T: memcpy_h2d(1.758947)
F: 11868912----T: 11871517 	 St: c03b6000 Sz: 4096 	 Sm: 0 	 T: memcpy_h2d(1.758947)
F: 11871517----T: 11874122 	 St: c03b7000 Sz: 4096 	 Sm: 0 	 T: memcpy_h2d(1.758947)
F: 11874122----T: 11876727 	 St: c03b8000 Sz: 4096 	 Sm: 0 	 T: memcpy_h2d(1.758947)
F: 11876727----T: 11879332 	 St: c03b9000 Sz: 4096 	 Sm: 0 	 T: memcpy_h2d(1.758947)
F: 11879332----T: 11881937 	 St: c03ba000 Sz: 4096 	 Sm: 0 	 T: memcpy_h2d(1.758947)
F: 11881937----T: 11884542 	 St: c03bb000 Sz: 4096 	 Sm: 0 	 T: memcpy_h2d(1.758947)
F: 11884542----T: 11887147 	 St: c03be000 Sz: 4096 	 Sm: 0 	 T: memcpy_h2d(1.758947)
F: 11887147----T: 11889752 	 St: c03bf000 Sz: 4096 	 Sm: 0 	 T: memcpy_h2d(1.758947)
F: 11889752----T: 11892357 	 St: c03bc000 Sz: 4096 	 Sm: 0 	 T: memcpy_h2d(1.758947)
F: 11892357----T: 11894962 	 St: c03bd000 Sz: 4096 	 Sm: 0 	 T: memcpy_h2d(1.758947)
F: 11894962----T: 11897567 	 St: c03c0000 Sz: 4096 	 Sm: 0 	 T: memcpy_h2d(1.758947)
F: 11897567----T: 11900172 	 St: c03c1000 Sz: 4096 	 Sm: 0 	 T: memcpy_h2d(1.758947)
F: 11900172----T: 11902777 	 St: c03c4000 Sz: 4096 	 Sm: 0 	 T: memcpy_h2d(1.758947)
F: 11902777----T: 11905382 	 St: c03c5000 Sz: 4096 	 Sm: 0 	 T: memcpy_h2d(1.758947)
F: 11905382----T: 11907987 	 St: c03c6000 Sz: 4096 	 Sm: 0 	 T: memcpy_h2d(1.758947)
F: 11907987----T: 11910592 	 St: c03c7000 Sz: 4096 	 Sm: 0 	 T: memcpy_h2d(1.758947)
F: 11910592----T: 11913197 	 St: c03c8000 Sz: 4096 	 Sm: 0 	 T: memcpy_h2d(1.758947)
F: 11913197----T: 11915802 	 St: c03c9000 Sz: 4096 	 Sm: 0 	 T: memcpy_h2d(1.758947)
F: 11915802----T: 11918407 	 St: c03ca000 Sz: 4096 	 Sm: 0 	 T: memcpy_h2d(1.758947)
F: 11918407----T: 11921012 	 St: c03cb000 Sz: 4096 	 Sm: 0 	 T: memcpy_h2d(1.758947)
F: 11921012----T: 11923617 	 St: c03c2000 Sz: 4096 	 Sm: 0 	 T: memcpy_h2d(1.758947)
F: 11923617----T: 11926222 	 St: c03c3000 Sz: 4096 	 Sm: 0 	 T: memcpy_h2d(1.758947)
F: 11933450----T: 11936055 	 St: c03ce000 Sz: 4096 	 Sm: 0 	 T: memcpy_h2d(1.758947)
F: 11936055----T: 11938660 	 St: c03cf000 Sz: 4096 	 Sm: 0 	 T: memcpy_h2d(1.758947)
F: 11938660----T: 11941265 	 St: c03cc000 Sz: 4096 	 Sm: 0 	 T: memcpy_h2d(1.758947)
F: 11941265----T: 11943870 	 St: c03cd000 Sz: 4096 	 Sm: 0 	 T: memcpy_h2d(1.758947)
F: 11943870----T: 11946475 	 St: c03d2000 Sz: 4096 	 Sm: 0 	 T: memcpy_h2d(1.758947)
F: 11946475----T: 11949080 	 St: c03d3000 Sz: 4096 	 Sm: 0 	 T: memcpy_h2d(1.758947)
F: 11949080----T: 11951685 	 St: c03d0000 Sz: 4096 	 Sm: 0 	 T: memcpy_h2d(1.758947)
F: 11951685----T: 11954290 	 St: c03d1000 Sz: 4096 	 Sm: 0 	 T: memcpy_h2d(1.758947)
F: 11954290----T: 11956895 	 St: c03d4000 Sz: 4096 	 Sm: 0 	 T: memcpy_h2d(1.758947)
F: 11956895----T: 11959500 	 St: c03d5000 Sz: 4096 	 Sm: 0 	 T: memcpy_h2d(1.758947)
F: 11959500----T: 11962105 	 St: c03d6000 Sz: 4096 	 Sm: 0 	 T: memcpy_h2d(1.758947)
F: 11962105----T: 11964710 	 St: c03d7000 Sz: 4096 	 Sm: 0 	 T: memcpy_h2d(1.758947)
F: 11964710----T: 11967315 	 St: c03d8000 Sz: 4096 	 Sm: 0 	 T: memcpy_h2d(1.758947)
F: 11967315----T: 11969920 	 St: c03d9000 Sz: 4096 	 Sm: 0 	 T: memcpy_h2d(1.758947)
F: 11969920----T: 11972525 	 St: c03da000 Sz: 4096 	 Sm: 0 	 T: memcpy_h2d(1.758947)
F: 11972525----T: 11975130 	 St: c03db000 Sz: 4096 	 Sm: 0 	 T: memcpy_h2d(1.758947)
F: 11975130----T: 11977735 	 St: c03dc000 Sz: 4096 	 Sm: 0 	 T: memcpy_h2d(1.758947)
F: 11977735----T: 11980340 	 St: c03dd000 Sz: 4096 	 Sm: 0 	 T: memcpy_h2d(1.758947)
F: 11980340----T: 11982945 	 St: c03de000 Sz: 4096 	 Sm: 0 	 T: memcpy_h2d(1.758947)
F: 11982945----T: 11985550 	 St: c03df000 Sz: 4096 	 Sm: 0 	 T: memcpy_h2d(1.758947)
F: 11985550----T: 11988155 	 St: c03e0000 Sz: 4096 	 Sm: 0 	 T: memcpy_h2d(1.758947)
F: 11988155----T: 11990760 	 St: c03e1000 Sz: 4096 	 Sm: 0 	 T: memcpy_h2d(1.758947)
F: 11990760----T: 11993365 	 St: c03e2000 Sz: 4096 	 Sm: 0 	 T: memcpy_h2d(1.758947)
F: 11993365----T: 11995970 	 St: c03e3000 Sz: 4096 	 Sm: 0 	 T: memcpy_h2d(1.758947)
F: 12001536----T: 12004141 	 St: c03e4000 Sz: 4096 	 Sm: 0 	 T: memcpy_h2d(1.758947)
F: 12001541----T: 12123101 	 St: c0500000 Sz: 1048576 	 Sm: 0 	 T: write_back(82.079674)
F: 12004141----T: 12006746 	 St: c03e5000 Sz: 4096 	 Sm: 0 	 T: memcpy_h2d(1.758947)
F: 12006746----T: 12009351 	 St: c03e6000 Sz: 4096 	 Sm: 0 	 T: memcpy_h2d(1.758947)
F: 12009351----T: 12011956 	 St: c03e7000 Sz: 4096 	 Sm: 0 	 T: memcpy_h2d(1.758947)
F: 12011956----T: 12014561 	 St: c03e8000 Sz: 4096 	 Sm: 0 	 T: memcpy_h2d(1.758947)
F: 12014561----T: 12017166 	 St: c03e9000 Sz: 4096 	 Sm: 0 	 T: memcpy_h2d(1.758947)
F: 12017166----T: 12019771 	 St: c03ee000 Sz: 4096 	 Sm: 0 	 T: memcpy_h2d(1.758947)
F: 12019771----T: 12022376 	 St: c03ef000 Sz: 4096 	 Sm: 0 	 T: memcpy_h2d(1.758947)
F: 12022376----T: 12024981 	 St: c03ea000 Sz: 4096 	 Sm: 0 	 T: memcpy_h2d(1.758947)
F: 12024981----T: 12027586 	 St: c03eb000 Sz: 4096 	 Sm: 0 	 T: memcpy_h2d(1.758947)
F: 12027586----T: 12030191 	 St: c03ec000 Sz: 4096 	 Sm: 0 	 T: memcpy_h2d(1.758947)
F: 12030191----T: 12032796 	 St: c03ed000 Sz: 4096 	 Sm: 0 	 T: memcpy_h2d(1.758947)
F: 12032796----T: 12035401 	 St: c03f2000 Sz: 4096 	 Sm: 0 	 T: memcpy_h2d(1.758947)
F: 12035401----T: 12038006 	 St: c03f3000 Sz: 4096 	 Sm: 0 	 T: memcpy_h2d(1.758947)
F: 12038006----T: 12040611 	 St: c03f6000 Sz: 4096 	 Sm: 0 	 T: memcpy_h2d(1.758947)
F: 12040611----T: 12043216 	 St: c03f7000 Sz: 4096 	 Sm: 0 	 T: memcpy_h2d(1.758947)
F: 12043216----T: 12045821 	 St: c03f0000 Sz: 4096 	 Sm: 0 	 T: memcpy_h2d(1.758947)
F: 12045821----T: 12048426 	 St: c03f1000 Sz: 4096 	 Sm: 0 	 T: memcpy_h2d(1.758947)
F: 12048426----T: 12051031 	 St: c03f4000 Sz: 4096 	 Sm: 0 	 T: memcpy_h2d(1.758947)
F: 12051031----T: 12053636 	 St: c03f5000 Sz: 4096 	 Sm: 0 	 T: memcpy_h2d(1.758947)
F: 12053636----T: 12056241 	 St: c03f8000 Sz: 4096 	 Sm: 0 	 T: memcpy_h2d(1.758947)
F: 12056241----T: 12058846 	 St: c03f9000 Sz: 4096 	 Sm: 0 	 T: memcpy_h2d(1.758947)
F: 12058846----T: 12061451 	 St: c03fa000 Sz: 4096 	 Sm: 0 	 T: memcpy_h2d(1.758947)
F: 12061451----T: 12064056 	 St: c03fb000 Sz: 4096 	 Sm: 0 	 T: memcpy_h2d(1.758947)
F: 12064056----T: 12066661 	 St: c03fe000 Sz: 4096 	 Sm: 0 	 T: memcpy_h2d(1.758947)
F: 12066661----T: 12069266 	 St: c03ff000 Sz: 4096 	 Sm: 0 	 T: memcpy_h2d(1.758947)
F: 12069266----T: 12071871 	 St: c03fc000 Sz: 4096 	 Sm: 0 	 T: memcpy_h2d(1.758947)
F: 12071871----T: 12074476 	 St: c03fd000 Sz: 4096 	 Sm: 0 	 T: memcpy_h2d(1.758947)
F: 12126373----T: 12128978 	 St: 0 Sz: 4096 	 Sm: 0 	 T: device_sync(1.758947)
F: 12126373----T: 12134613 	 St: 0 Sz: 61440 	 Sm: 0 	 T: device_sync(5.563808)
F: 12137218----T: 12139823 	 St: 0 Sz: 4096 	 Sm: 0 	 T: device_sync(1.758947)
F: 12137218----T: 12145458 	 St: 0 Sz: 61440 	 Sm: 0 	 T: device_sync(5.563808)
F: 12148063----T: 12150668 	 St: 0 Sz: 4096 	 Sm: 0 	 T: device_sync(1.758947)
F: 12148063----T: 12163758 	 St: 0 Sz: 126976 	 Sm: 0 	 T: device_sync(10.597569)
F: 12166363----T: 12168968 	 St: 0 Sz: 4096 	 Sm: 0 	 T: device_sync(1.758947)
F: 12166363----T: 12197086 	 St: 0 Sz: 258048 	 Sm: 0 	 T: device_sync(20.744766)
F: 12199691----T: 12202296 	 St: 0 Sz: 4096 	 Sm: 0 	 T: device_sync(1.758947)
F: 12199691----T: 12260527 	 St: 0 Sz: 520192 	 Sm: 0 	 T: device_sync(41.077652)
F: 12263132----T: 12265737 	 St: 0 Sz: 4096 	 Sm: 0 	 T: device_sync(1.758947)
F: 12263132----T: 12384221 	 St: 0 Sz: 1044480 	 Sm: 0 	 T: device_sync(81.761650)
F: 12386826----T: 12389431 	 St: 0 Sz: 4096 	 Sm: 0 	 T: device_sync(1.758947)
F: 12386826----T: 12395066 	 St: 0 Sz: 61440 	 Sm: 0 	 T: device_sync(5.563808)
F: 12397671----T: 12400276 	 St: 0 Sz: 4096 	 Sm: 0 	 T: device_sync(1.758947)
F: 12397671----T: 12405911 	 St: 0 Sz: 61440 	 Sm: 0 	 T: device_sync(5.563808)
F: 12408516----T: 12411121 	 St: 0 Sz: 4096 	 Sm: 0 	 T: device_sync(1.758947)
F: 12408516----T: 12424211 	 St: 0 Sz: 126976 	 Sm: 0 	 T: device_sync(10.597569)
F: 12426816----T: 12429421 	 St: 0 Sz: 4096 	 Sm: 0 	 T: device_sync(1.758947)
F: 12426816----T: 12457539 	 St: 0 Sz: 258048 	 Sm: 0 	 T: device_sync(20.744766)
F: 12460144----T: 12462749 	 St: 0 Sz: 4096 	 Sm: 0 	 T: device_sync(1.758947)
F: 12460144----T: 12520980 	 St: 0 Sz: 520192 	 Sm: 0 	 T: device_sync(41.077652)
F: 12523585----T: 12526190 	 St: 0 Sz: 4096 	 Sm: 0 	 T: device_sync(1.758947)
F: 12523585----T: 12644674 	 St: 0 Sz: 1044480 	 Sm: 0 	 T: device_sync(81.761650)
F: 12647279----T: 12649884 	 St: 0 Sz: 4096 	 Sm: 0 	 T: device_sync(1.758947)
F: 12647279----T: 12655519 	 St: 0 Sz: 61440 	 Sm: 0 	 T: device_sync(5.563808)
F: 12658124----T: 12660729 	 St: 0 Sz: 4096 	 Sm: 0 	 T: device_sync(1.758947)
F: 12658124----T: 12666364 	 St: 0 Sz: 61440 	 Sm: 0 	 T: device_sync(5.563808)
F: 12668969----T: 12671574 	 St: 0 Sz: 4096 	 Sm: 0 	 T: device_sync(1.758947)
F: 12668969----T: 12684664 	 St: 0 Sz: 126976 	 Sm: 0 	 T: device_sync(10.597569)
F: 12687269----T: 12689874 	 St: 0 Sz: 4096 	 Sm: 0 	 T: device_sync(1.758947)
F: 12687269----T: 12717992 	 St: 0 Sz: 258048 	 Sm: 0 	 T: device_sync(20.744766)
F: 12720597----T: 12723202 	 St: 0 Sz: 4096 	 Sm: 0 	 T: device_sync(1.758947)
F: 12720597----T: 12781433 	 St: 0 Sz: 520192 	 Sm: 0 	 T: device_sync(41.077652)
F: 12784038----T: 12786643 	 St: 0 Sz: 4096 	 Sm: 0 	 T: device_sync(1.758947)
F: 12784038----T: 12905127 	 St: 0 Sz: 1044480 	 Sm: 0 	 T: device_sync(81.761650)
Tot_prefetch_time: 0(cycle), 0.000000(us)
Tot_kernel_exec_time: 11237773(cycle), 7587.962891(us)
Tot_kernel_exec_time_and_fault_time: 235364908(cycle), 158922.968750(us)
Tot_memcpy_h2d_time: 10103529(cycle), 6822.099121(us)
Tot_memcpy_d2h_time: 0(cycle), 0.000000(us)
Tot_memcpy_time: 10103529(cycle), 6822.099121(us)
Tot_devicesync_time: 781359(cycle), 527.588806(us)
Tot_writeback_time: 1733389(cycle), 1170.417969(us)
Tot_dma_time: 0(cycle), 0.000000(us)
Tot_memcpy_d2h_sync_wb_time: 2514748(cycle), 1698.006714(us)
GPGPU-Sim: *** exit detected ***
