

        *** GPGPU-Sim Simulator Version 3.2.2  [build gpgpu-sim_git-commit-81f06f4dfacce9460dffe8b3842afa7b201b4af9_modified_0] ***


GPGPU-Sim PTX: simulation mode 0 (can change with PTX_SIM_MODE_FUNC environment variable:
               1=functional simulation only, 0=detailed performance simulator)
GPGPU-Sim: Configuration options:

-network_mode                           1 # Interconnection network mode
-inter_config_file   config_fermi_islip.icnt # Interconnection network config file
-gpgpu_ptx_use_cuobjdump                    1 # Use cuobjdump to extract ptx and sass from binaries
-gpgpu_experimental_lib_support                    0 # Try to extract code from cuda libraries [Broken because of unknown cudaGetExportTable]
-gpgpu_ptx_convert_to_ptxplus                    0 # Convert SASS (native ISA) to ptxplus and run ptxplus
-gpgpu_ptx_force_max_capability                   20 # Force maximum compute capability
-gpgpu_ptx_inst_debug_to_file                    0 # Dump executed instructions' debug information to file
-gpgpu_ptx_inst_debug_file       inst_debug.txt # Executed instructions' debug output file
-gpgpu_ptx_inst_debug_thread_uid                    1 # Thread UID for executed instructions' debug output
-gpgpu_simd_model                       1 # 1 = post-dominator
-gpgpu_shader_core_pipeline              2048:32 # shader core pipeline config, i.e., {<nthread>:<warpsize>}
-gpgpu_tex_cache:l1  16:128:24,L:R:m:N:L,F:128:4,128:2 # per-shader L1 texture cache  (READ-ONLY) config  {<nsets>:<bsize>:<assoc>,<rep>:<wr>:<alloc>:<wr_alloc>,<mshr>:<N>:<merge>,<mq>:<rf>}
-gpgpu_const_cache:l1 128:64:2,L:R:f:N:L,A:2:64,4 # per-shader L1 constant memory cache  (READ-ONLY) config  {<nsets>:<bsize>:<assoc>,<rep>:<wr>:<alloc>:<wr_alloc>,<mshr>:<N>:<merge>,<mq>} 
-gpgpu_cache:il1     8:128:4,L:R:f:N:L,A:2:48,4 # shader L1 instruction cache config  {<nsets>:<bsize>:<assoc>,<rep>:<wr>:<alloc>:<wr_alloc>,<mshr>:<N>:<merge>,<mq>} 
-gpgpu_cache:dl1     64:128:6,L:L:m:N:H,A:128:8,8 # per-shader L1 data cache config  {<nsets>:<bsize>:<assoc>,<rep>:<wr>:<alloc>:<wr_alloc>,<mshr>:<N>:<merge>,<mq> | none}
-gpgpu_cache:dl1PrefL1                 none # per-shader L1 data cache config  {<nsets>:<bsize>:<assoc>,<rep>:<wr>:<alloc>:<wr_alloc>,<mshr>:<N>:<merge>,<mq> | none}
-gpgpu_cache:dl1PrefShared                 none # per-shader L1 data cache config  {<nsets>:<bsize>:<assoc>,<rep>:<wr>:<alloc>:<wr_alloc>,<mshr>:<N>:<merge>,<mq> | none}
-gmem_skip_L1D                          1 # global memory access skip L1D cache (implements -Xptxas -dlcm=cg, default=no skip)
-gpgpu_perfect_mem                      0 # enable perfect memory mode (no cache miss)
-n_regfile_gating_group                    4 # group of lanes that should be read/written together)
-gpgpu_clock_gated_reg_file                    0 # enable clock gated reg file for power calculations
-gpgpu_clock_gated_lanes                    0 # enable clock gated lanes for power calculations
-gpgpu_shader_registers                65536 # Number of registers per shader core. Limits number of concurrent CTAs. (default 8192)
-gpgpu_shader_cta                      32 # Maximum number of concurrent CTAs in shader (default 8)
-gpgpu_num_cta_barriers                   16 # Maximum number of named barriers per CTA (default 16)
-gpgpu_n_clusters                      28 # number of processing clusters
-gpgpu_n_cores_per_cluster                    1 # number of simd cores per cluster
-gpgpu_n_cluster_ejection_buffer_size                    8 # number of packets in ejection buffer
-gpgpu_n_ldst_response_buffer_size                    2 # number of response packets in ld/st unit ejection buffer
-gpgpu_shmem_size                   16384 # Size of shared memory per shader core (default 16kB)
-gpgpu_shmem_size                   98304 # Size of shared memory per shader core (default 16kB)
-gpgpu_shmem_size_PrefL1                16384 # Size of shared memory per shader core (default 16kB)
-gpgpu_shmem_size_PrefShared                16384 # Size of shared memory per shader core (default 16kB)
-gpgpu_shmem_num_banks                   32 # Number of banks in the shared memory in each shader core (default 16)
-gpgpu_shmem_limited_broadcast                    0 # Limit shared memory to do one broadcast per cycle (default on)
-gpgpu_shmem_warp_parts                    1 # Number of portions a warp is divided into for shared memory bank conflict check 
-gpgpu_warpdistro_shader                   -1 # Specify which shader core to collect the warp size distribution from
-gpgpu_warp_issue_shader                    0 # Specify which shader core to collect the warp issue distribution from
-gpgpu_local_mem_map                    1 # Mapping from local memory space address to simulated GPU physical address space (default = enabled)
-gpgpu_num_reg_banks                   32 # Number of register banks (default = 8)
-gpgpu_reg_bank_use_warp_id                    0 # Use warp ID in mapping registers to banks (default = off)
-gpgpu_operand_collector_num_units_sp                   20 # number of collector units (default = 4)
-gpgpu_operand_collector_num_units_sfu                    4 # number of collector units (default = 4)
-gpgpu_operand_collector_num_units_mem                    8 # number of collector units (default = 2)
-gpgpu_operand_collector_num_units_gen                    0 # number of collector units (default = 0)
-gpgpu_operand_collector_num_in_ports_sp                    4 # number of collector unit in ports (default = 1)
-gpgpu_operand_collector_num_in_ports_sfu                    1 # number of collector unit in ports (default = 1)
-gpgpu_operand_collector_num_in_ports_mem                    1 # number of collector unit in ports (default = 1)
-gpgpu_operand_collector_num_in_ports_gen                    0 # number of collector unit in ports (default = 0)
-gpgpu_operand_collector_num_out_ports_sp                    4 # number of collector unit in ports (default = 1)
-gpgpu_operand_collector_num_out_ports_sfu                    1 # number of collector unit in ports (default = 1)
-gpgpu_operand_collector_num_out_ports_mem                    1 # number of collector unit in ports (default = 1)
-gpgpu_operand_collector_num_out_ports_gen                    0 # number of collector unit in ports (default = 0)
-gpgpu_coalesce_arch                   13 # Coalescing arch (default = 13, anything else is off for now)
-gpgpu_num_sched_per_core                    2 # Number of warp schedulers per core
-gpgpu_max_insn_issue_per_warp                    2 # Max number of instructions that can be issued per warp in one cycle by scheduler
-gpgpu_simt_core_sim_order                    1 # Select the simulation order of cores in a cluster (0=Fix, 1=Round-Robin)
-gpgpu_pipeline_widths        4,1,1,4,1,1,6 # Pipeline widths ID_OC_SP,ID_OC_SFU,ID_OC_MEM,OC_EX_SP,OC_EX_SFU,OC_EX_MEM,EX_WB
-gpgpu_num_sp_units                     4 # Number of SP units (default=1)
-gpgpu_num_sfu_units                    1 # Number of SF units (default=1)
-gpgpu_num_mem_units                    1 # Number if ldst units (default=1) WARNING: not hooked up to anything
-gpgpu_scheduler                      gto # Scheduler configuration: < lrr | gto | two_level_active > If two_level_active:<num_active_warps>:<inner_prioritization>:<outer_prioritization>For complete list of prioritization values see shader.h enum scheduler_prioritization_typeDefault: gto
-gpgpu_concurrent_kernel_sm                    0 # Support concurrent kernels on a SM (default = disabled)
-tlb_size                            4096 # Number of tlb entries per SM.
-gpgpu_dram_scheduler                    1 # 0 = fifo, 1 = FR-FCFS (defaul)
-gpgpu_dram_partition_queues              8:8:8:8 # i2$:$2d:d2$:$2i
-l2_ideal                               0 # Use a ideal L2 cache that always hit
-gpgpu_cache:dl2     64:128:16,L:B:m:W:L,A:1024:1024,4:0,32 # unified banked L2 data cache config  {<nsets>:<bsize>:<assoc>,<rep>:<wr>:<alloc>:<wr_alloc>,<mshr>:<N>:<merge>,<mq>}
-gpgpu_cache:dl2_texture_only                    0 # L2 cache used for texture only
-gpgpu_n_mem                           11 # number of memory modules (e.g. memory controllers) in gpu
-gpgpu_n_sub_partition_per_mchannel                    2 # number of memory subpartition in each memory module
-gpgpu_n_mem_per_ctrlr                    1 # number of memory chips per memory controller
-gpgpu_memlatency_stat                   14 # track and display latency statistics 0x2 enables MC, 0x4 enables queue logs
-gpgpu_frfcfs_dram_sched_queue_size                   64 # 0 = unlimited (default); # entries per chip
-gpgpu_dram_return_queue_size                  116 # 0 = unlimited (default); # entries per chip
-gpgpu_dram_buswidth                    4 # default = 4 bytes (8 bytes per cycle at DDR)
-gpgpu_dram_burst_length                    8 # Burst length of each DRAM request (default = 4 data bus cycle)
-dram_data_command_freq_ratio                    4 # Frequency ratio between DRAM data bus and command bus (default = 2 times, i.e. DDR)
-gpgpu_dram_timing_opt nbk=16:CCD=2:RRD=6:RCD=12:RAS=28:RP=12:RC=40: CL=12:WL=4:CDLR=5:WR=12:nbkgrp=1:CCDL=0:RTPL=0 # DRAM timing parameters = {nbk:tCCD:tRRD:tRCD:tRAS:tRP:tRC:CL:WL:tCDLR:tWR:nbkgrp:tCCDL:tRTPL}
-rop_latency                          120 # ROP queue latency (default 85)
-dram_latency                         100 # DRAM latency (default 30)
-gpgpu_mem_addr_mapping dramid@8;00000000.00000000.00000000.00000000.0000RRRR.RRRRRRRR.RBBBCCCC.BCCSSSSS # mapping memory address to dram model {dramid@<start bit>;<memory address map>}
-gpgpu_mem_addr_test                    0 # run sweep test to check address mapping for aliased address
-gpgpu_mem_address_mask                    1 # 0 = old addressing mask, 1 = new addressing mask, 2 = new add. mask + flipped bank sel and chip sel bits
-gpuwattch_xml_file  gpuwattch_geforcegtx1080ti.xml # GPUWattch XML file
-power_simulation_enabled                    1 # Turn on power simulator (1=On, 0=Off)
-power_per_cycle_dump                    0 # Dump detailed power output each cycle
-power_trace_enabled                    0 # produce a file for the power trace (1=On, 0=Off)
-power_trace_zlevel                     6 # Compression level of the power trace output log (0=no comp, 9=highest)
-steady_power_levels_enabled                    0 # produce a file for the steady power levels (1=On, 0=Off)
-steady_state_definition                  8:4 # allowed deviation:number of samples
-gpgpu_max_cycle                        0 # terminates gpu simulation early (0 = no limit)
-gpgpu_max_insn                         0 # terminates gpu simulation early (0 = no limit)
-gpgpu_max_cta                          0 # terminates gpu simulation early (0 = no limit)
-gpgpu_runtime_stat                   500 # display runtime statistics such as dram utilization {<freq>:<flag>}
-liveness_message_freq                    1 # Minimum number of seconds between simulation liveness messages (0 = always print)
-gpgpu_flush_l1_cache                    0 # Flush L1 cache at the end of each kernel call
-gpgpu_flush_l2_cache                    0 # Flush L2 cache at the end of each kernel call
-gpgpu_deadlock_detect                    0 # Stop the simulation at deadlock (1=on (default), 0=off)
-gpgpu_ptx_instruction_classification                    0 # if enabled will classify ptx instruction types per kernel (Max 255 kernels now)
-gpgpu_ptx_sim_mode                     0 # Select between Performance (default) or Functional simulation (1)
-gpgpu_clock_domains 1481.0:2962.0:1481.0:2750.0 # Clock Domain Frequencies in MhZ {<Core Clock>:<ICNT Clock>:<L2 Clock>:<DRAM Clock>}
-gpgpu_max_concurrent_kernel                    8 # maximum kernels that can run concurrently on GPU
-gpgpu_cflog_interval                    0 # Interval between each snapshot in control flow logger
-visualizer_enabled                     0 # Turn on visualizer output (1=On, 0=Off)
-visualizer_outputfile                 NULL # Specifies the output log file for visualizer
-visualizer_zlevel                      6 # Compression level of the visualizer output log (0=no comp, 9=highest)
-trace_enabled                          0 # Turn on traces
-trace_components                    none # comma seperated list of traces to enable. Complete list found in trace_streams.tup. Default none
-trace_sampling_core                    0 # The core which is printed using CORE_DPRINTF. Default 0
-trace_sampling_memory_partition                   -1 # The memory partition which is printed using MEMPART_DPRINTF. Default -1 (i.e. all)
-gddr_size                        14.05MB # Size of GDDR in MB/GB.(GLOBAL_HEAP_START, GLOBAL_HEAP_START + gddr_size) would be used for unmanged memory, (GLOBAL_HEAP_START + gddr_size, GLOBAL_HEAP_START + gddr_size*2) would be used for managed memory. 
-page_table_walk_latency                  100 # Average page table walk latency (in core cycle).
-eviction_policy                        4 # Select page eviction policy
-invalidate_clean                       0 # Should directly invalidate clean pages
-reserve_accessed_page_percent                    0 # Percentage of accessed pages reserved from eviction in hope that they will be accessed in next iteration.
-percentage_of_free_page_buffer                    0 # Percentage of free page buffer to trigger the page eviction.
-page_size                            4KB # GDDR page size, only 4KB/2MB avaliable.
-pcie_bandwidth                  16.0GB/s # PCI-e bandwidth per direction, in GB/s.
-enable_dma                             1 # Enable direct access to CPU memory
-multiply_dma_penalty              1048576 # Oversubscription Multiplicative Penalty Factor for Adaptive DMA
-migrate_threshold                      8 # Access counter threshold for migrating the page from cpu to gpu
-sim_prof_enable                        1 # Enable gpgpu-sim profiler
-hardware_prefetch                      1 # Select gpgpu-sim hardware prefetcher
-hwprefetch_oversub                     1 # Select gpgpu-sim hardware prefetcher under over-subscription
-page_fault_latency                 66645 # Average fault latency (in core cycle).
-enable_accurate_simulation                    0 # Enable page fault functional simulation.
-enable_ptx_file_line_stats                    1 # Turn on PTX source line statistic profiling. (1 = On)
-ptx_line_stats_filename gpgpu_inst_stats.txt # Output file for PTX source line statistics.
-gpgpu_kernel_launch_latency               222150 # Kernel launch latency in cycles. Default: 0
-gpgpu_cdp_enabled                      0 # Turn on CDP
-save_embedded_ptx                      0 # saves ptx files embedded in binary as <n>.ptx
-keep                                   0 # keep intermediate files created by GPGPU-Sim when interfacing with external programs
-gpgpu_ptx_save_converted_ptxplus                    0 # Saved converted ptxplus to a file
-ptx_opcode_latency_int         4,13,4,5,145 # Opcode latencies for integers <ADD,MAX,MUL,MAD,DIV>Default 1,1,19,25,145
-ptx_opcode_latency_fp          4,13,4,5,39 # Opcode latencies for single precision floating points <ADD,MAX,MUL,MAD,DIV>Default 1,1,1,1,30
-ptx_opcode_latency_dp         8,19,8,8,330 # Opcode latencies for double precision floating points <ADD,MAX,MUL,MAD,DIV>Default 8,8,8,8,335
-ptx_opcode_initiation_int            1,2,2,2,8 # Opcode initiation intervals for integers <ADD,MAX,MUL,MAD,DIV>Default 1,1,4,4,32
-ptx_opcode_initiation_fp            1,2,1,1,4 # Opcode initiation intervals for single precision floating points <ADD,MAX,MUL,MAD,DIV>Default 1,1,1,1,5
-ptx_opcode_initiation_dp          1,2,1,1,130 # Opcode initiation intervals for double precision floating points <ADD,MAX,MUL,MAD,DIV>Default 8,8,8,8,130
-cdp_latency         7200,8000,100,12000,1600 # CDP API latency <cudaStreamCreateWithFlags, cudaGetParameterBufferV2_init_perWarp, cudaGetParameterBufferV2_perKernel, cudaLaunchDeviceV2_init_perWarp, cudaLaunchDevicV2_perKernel>Default 7200,8000,100,12000,1600
DRAM Timing Options:
nbk                                    16 # number of banks
CCD                                     2 # column to column delay
RRD                                     6 # minimal delay between activation of rows in different banks
RCD                                    12 # row to column delay
RAS                                    28 # time needed to activate row
RP                                     12 # time needed to precharge (deactivate) row
RC                                     40 # row cycle time
CDLR                                    5 # switching from write to read (changes tWTR)
WR                                     12 # last data-in to row precharge
CL                                     12 # CAS latency
WL                                      4 # Write latency
nbkgrp                                  1 # number of bank groups
CCDL                                    0 # column to column delay between accesses to different bank groups
RTPL                                    0 # read to precharge delay between accesses to different bank groups
Total number of memory sub partition = 22
addr_dec_mask[CHIP]  = 0000000000000000 	high:64 low:0
addr_dec_mask[BK]    = 0000000000007080 	high:15 low:7
addr_dec_mask[ROW]   = 000000000fff8000 	high:28 low:15
addr_dec_mask[COL]   = 0000000000000f7f 	high:12 low:0
addr_dec_mask[BURST] = 000000000000001f 	high:5 low:0
sub_partition_id_mask = 0000000000000080
GPGPU-Sim uArch: clock freqs: 1481000000.000000:2962000000.000000:1481000000.000000:2750000000.000000
GPGPU-Sim uArch: clock periods: 0.00000000067521944632:0.00000000033760972316:0.00000000067521944632:0.00000000036363636364
*** Initializing Memory Statistics ***
GPGPU-Sim uArch: interconnect node map (shaderID+MemID to icntID)
GPGPU-Sim uArch: Memory nodes ID start from index: 28
GPGPU-Sim uArch:    0   1   2   3   4   5   6
GPGPU-Sim uArch:    7   8   9  10  11  12  13
GPGPU-Sim uArch:   14  15  16  17  18  19  20
GPGPU-Sim uArch:   21  22  23  24  25  26  27
GPGPU-Sim uArch:   28  29  30  31  32  33  34
GPGPU-Sim uArch:   35  36  37  38  39  40  41
GPGPU-Sim uArch:   42  43  44  45  46  47  48
GPGPU-Sim uArch:   49
GPGPU-Sim uArch: interconnect node reverse map (icntID to shaderID+MemID)
GPGPU-Sim uArch: Memory nodes start from ID: 28
GPGPU-Sim uArch:    0   1   2   3   4   5   6
GPGPU-Sim uArch:    7   8   9  10  11  12  13
GPGPU-Sim uArch:   14  15  16  17  18  19  20
GPGPU-Sim uArch:   21  22  23  24  25  26  27
GPGPU-Sim uArch:   28  29  30  31  32  33  34
GPGPU-Sim uArch:   35  36  37  38  39  40  41
GPGPU-Sim uArch:   42  43  44  45  46  47  48
GPGPU-Sim uArch:   49
f2bb7d2b51ca0cb3858841b3824d1fe9  /root/gpgpu-sim_UVMSmart/benchmarks/Managed/backprop/backprop
GPGPU-Sim uArch: performance model initialization complete.
GPGPU-Sim PTX: __cudaRegisterFatBinary, fat_cubin_handle = 1, filename=default
self exe links to: /root/gpgpu-sim_UVMSmart/benchmarks/Managed/backprop/backprop
Running md5sum using "md5sum /root/gpgpu-sim_UVMSmart/benchmarks/Managed/backprop/backprop "
Parsing file _cuobjdump_complete_output_yXp710
######### cuobjdump parser ########
## Adding new section ELF
Adding arch: sm_20
Adding identifier: default
## Adding new section ELF
Adding arch: sm_20
Adding identifier: default
## Adding new section PTX
Adding ptx filename: _cuobjdump_1.ptx
Adding arch: sm_20
Adding identifier: default
Done parsing!!!
GPGPU-Sim PTX: __cudaRegisterFunction _Z24bpnn_adjust_weights_cudaPfiS_iS_S_ : hostFun 0x0x402d51, fat_cubin_handle = 1
GPGPU-Sim PTX: allocating shared region for "_Z22bpnn_layerforward_CUDAPfS_S_S_ii$__cuda_local_var_17900_34_non_const_input_node" from 0x0 to 0x40 (shared memory space)
GPGPU-Sim PTX: allocating shared region for "_Z22bpnn_layerforward_CUDAPfS_S_S_ii$__cuda_local_var_17901_34_non_const_weight_matrix" from 0x80 to 0x480 (shared memory space)
GPGPU-Sim PTX: instruction assembly for function '_Z22bpnn_layerforward_CUDAPfS_S_S_ii'...   done.
GPGPU-Sim PTX: finding reconvergence points for '_Z22bpnn_layerforward_CUDAPfS_S_S_ii'...
GPGPU-Sim PTX: Finding dominators for '_Z22bpnn_layerforward_CUDAPfS_S_S_ii'...
GPGPU-Sim PTX: Finding immediate dominators for '_Z22bpnn_layerforward_CUDAPfS_S_S_ii'...
GPGPU-Sim PTX: Finding postdominators for '_Z22bpnn_layerforward_CUDAPfS_S_S_ii'...
GPGPU-Sim PTX: Finding immediate postdominators for '_Z22bpnn_layerforward_CUDAPfS_S_S_ii'...
GPGPU-Sim PTX: pre-decoding instructions for '_Z22bpnn_layerforward_CUDAPfS_S_S_ii'...
GPGPU-Sim PTX: reconvergence points for _Z22bpnn_layerforward_CUDAPfS_S_S_ii...
GPGPU-Sim PTX:  1 (potential) branch divergence @  PC=0x068 (_1.ptx:47) @%p2 bra BB0_2;
GPGPU-Sim PTX:    immediate post dominator      @  PC=0x0a0 (_1.ptx:57) cvta.to.global.u64 %rd3, %rd8;
GPGPU-Sim PTX:  2 (potential) branch divergence @  PC=0x168 (_1.ptx:82) @%p3 bra BB0_7;
GPGPU-Sim PTX:    immediate post dominator      @  PC=0x250 (_1.ptx:119) setp.eq.s32%p1, %r3, 0;
GPGPU-Sim PTX:  3 (potential) branch divergence @  PC=0x1c8 (_1.ptx:97) @%p4 bra BB0_6;
GPGPU-Sim PTX:    immediate post dominator      @  PC=0x228 (_1.ptx:112) bar.sync 0;
GPGPU-Sim PTX:  4 (potential) branch divergence @  PC=0x248 (_1.ptx:116) @%p5 bra BB0_4;
GPGPU-Sim PTX:    immediate post dominator      @  PC=0x250 (_1.ptx:119) setp.eq.s32%p1, %r3, 0;
GPGPU-Sim PTX:  5 (potential) branch divergence @  PC=0x270 (_1.ptx:123) @!%p1 bra BB0_9;
GPGPU-Sim PTX:    immediate post dominator      @  PC=0x2c8 (_1.ptx:138) ret;
GPGPU-Sim PTX:  6 (potential) branch divergence @  PC=0x278 (_1.ptx:124) bra.uni BB0_8;
GPGPU-Sim PTX:    immediate post dominator      @  PC=0x280 (_1.ptx:127) cvt.u32.u64%r20, %rd1;
GPGPU-Sim PTX: ... end of reconvergence points for _Z22bpnn_layerforward_CUDAPfS_S_S_ii
GPGPU-Sim PTX: ... done pre-decoding instructions for '_Z22bpnn_layerforward_CUDAPfS_S_S_ii'.
GPGPU-Sim PTX: instruction assembly for function '_Z24bpnn_adjust_weights_cudaPfiS_iS_S_'...   done.
GPGPU-Sim PTX: finding reconvergence points for '_Z24bpnn_adjust_weights_cudaPfiS_iS_S_'...
GPGPU-Sim PTX: Finding dominators for '_Z24bpnn_adjust_weights_cudaPfiS_iS_S_'...
GPGPU-Sim PTX: Finding immediate dominators for '_Z24bpnn_adjust_weights_cudaPfiS_iS_S_'...
GPGPU-Sim PTX: Finding postdominators for '_Z24bpnn_adjust_weights_cudaPfiS_iS_S_'...
GPGPU-Sim PTX: Finding immediate postdominators for '_Z24bpnn_adjust_weights_cudaPfiS_iS_S_'...
GPGPU-Sim PTX: pre-decoding instructions for '_Z24bpnn_adjust_weights_cudaPfiS_iS_S_'...
GPGPU-Sim PTX: reconvergence points for _Z24bpnn_adjust_weights_cudaPfiS_iS_S_...
GPGPU-Sim PTX:  1 (potential) branch divergence @  PC=0x470 (_1.ptx:210) @%p1 bra BB1_2;
GPGPU-Sim PTX:    immediate post dominator      @  PC=0x530 (_1.ptx:237) ret;
GPGPU-Sim PTX: ... end of reconvergence points for _Z24bpnn_adjust_weights_cudaPfiS_iS_S_
GPGPU-Sim PTX: ... done pre-decoding instructions for '_Z24bpnn_adjust_weights_cudaPfiS_iS_S_'.
GPGPU-Sim PTX: finished parsing EMBEDDED .ptx file _1.ptx
Adding _cuobjdump_1.ptx with cubin handle 1
GPGPU-Sim PTX: extracting embedded .ptx to temporary file "_ptx_6SgH6o"
Running: cat _ptx_6SgH6o | sed 's/.version 1.5/.version 1.4/' | sed 's/, texmode_independent//' | sed 's/\(\.extern \.const\[1\] .b8 \w\+\)\[\]/\1\[1\]/' | sed 's/const\[.\]/const\[0\]/g' > _ptx2_sKBjbN
GPGPU-Sim PTX: generating ptxinfo using "$CUDA_INSTALL_PATH/bin/ptxas --gpu-name=sm_20 -v _ptx2_sKBjbN --output-file  /dev/null 2> _ptx_6SgH6oinfo"
GPGPU-Sim PTX: Kernel '_Z24bpnn_adjust_weights_cudaPfiS_iS_S_' : regs=22, lmem=0, smem=0, cmem=80
GPGPU-Sim PTX: Kernel '_Z22bpnn_layerforward_CUDAPfS_S_S_ii' : regs=11, lmem=0, smem=1088, cmem=72
GPGPU-Sim PTX: removing ptxinfo using "rm -f _ptx_6SgH6o _ptx2_sKBjbN _ptx_6SgH6oinfo"
GPGPU-Sim PTX: loading globals with explicit initializers... 
GPGPU-Sim PTX: finished loading globals (0 bytes total).
GPGPU-Sim PTX: loading constants with explicit initializers...  done.
GPGPU-Sim PTX: __cudaRegisterFunction _Z22bpnn_layerforward_CUDAPfS_S_S_ii : hostFun 0x0x402c00, fat_cubin_handle = 1
Random number generator seed: 7
Input layer size : 131056
Starting training kernel
Performing GPU computation

GPGPU-Sim PTX: cudaLaunch for 0x0x402c00 (mode=performance simulation) on stream 0
GPGPU-Sim PTX: pushing kernel '_Z22bpnn_layerforward_CUDAPfS_S_S_ii' to stream 0, gridDim= (1,8191,1) blockDim = (16,16,1) 
GPGPU-Sim uArch: Shader 1 bind to kernel 1 '_Z22bpnn_layerforward_CUDAPfS_S_S_ii'
GPGPU-Sim uArch: CTA/core = 8, limited by: threads
GPGPU-Sim uArch: Shader 2 bind to kernel 1 '_Z22bpnn_layerforward_CUDAPfS_S_S_ii'
GPGPU-Sim uArch: Shader 3 bind to kernel 1 '_Z22bpnn_layerforward_CUDAPfS_S_S_ii'
GPGPU-Sim uArch: Shader 4 bind to kernel 1 '_Z22bpnn_layerforward_CUDAPfS_S_S_ii'
GPGPU-Sim uArch: Shader 5 bind to kernel 1 '_Z22bpnn_layerforward_CUDAPfS_S_S_ii'
GPGPU-Sim uArch: Shader 6 bind to kernel 1 '_Z22bpnn_layerforward_CUDAPfS_S_S_ii'
GPGPU-Sim uArch: Shader 7 bind to kernel 1 '_Z22bpnn_layerforward_CUDAPfS_S_S_ii'
GPGPU-Sim uArch: Shader 8 bind to kernel 1 '_Z22bpnn_layerforward_CUDAPfS_S_S_ii'
GPGPU-Sim uArch: Shader 9 bind to kernel 1 '_Z22bpnn_layerforward_CUDAPfS_S_S_ii'
GPGPU-Sim uArch: Shader 10 bind to kernel 1 '_Z22bpnn_layerforward_CUDAPfS_S_S_ii'
GPGPU-Sim uArch: Shader 11 bind to kernel 1 '_Z22bpnn_layerforward_CUDAPfS_S_S_ii'
GPGPU-Sim uArch: Shader 12 bind to kernel 1 '_Z22bpnn_layerforward_CUDAPfS_S_S_ii'
GPGPU-Sim uArch: Shader 13 bind to kernel 1 '_Z22bpnn_layerforward_CUDAPfS_S_S_ii'
GPGPU-Sim uArch: Shader 14 bind to kernel 1 '_Z22bpnn_layerforward_CUDAPfS_S_S_ii'
GPGPU-Sim uArch: Shader 15 bind to kernel 1 '_Z22bpnn_layerforward_CUDAPfS_S_S_ii'
GPGPU-Sim uArch: Shader 16 bind to kernel 1 '_Z22bpnn_layerforward_CUDAPfS_S_S_ii'
GPGPU-Sim uArch: Shader 17 bind to kernel 1 '_Z22bpnn_layerforward_CUDAPfS_S_S_ii'
GPGPU-Sim uArch: Shader 18 bind to kernel 1 '_Z22bpnn_layerforward_CUDAPfS_S_S_ii'
GPGPU-Sim uArch: Shader 19 bind to kernel 1 '_Z22bpnn_layerforward_CUDAPfS_S_S_ii'
GPGPU-Sim uArch: Shader 20 bind to kernel 1 '_Z22bpnn_layerforward_CUDAPfS_S_S_ii'
GPGPU-Sim uArch: Shader 21 bind to kernel 1 '_Z22bpnn_layerforward_CUDAPfS_S_S_ii'
GPGPU-Sim uArch: Shader 22 bind to kernel 1 '_Z22bpnn_layerforward_CUDAPfS_S_S_ii'
GPGPU-Sim uArch: Shader 23 bind to kernel 1 '_Z22bpnn_layerforward_CUDAPfS_S_S_ii'
GPGPU-Sim uArch: Shader 24 bind to kernel 1 '_Z22bpnn_layerforward_CUDAPfS_S_S_ii'
GPGPU-Sim uArch: Shader 25 bind to kernel 1 '_Z22bpnn_layerforward_CUDAPfS_S_S_ii'
GPGPU-Sim uArch: Shader 26 bind to kernel 1 '_Z22bpnn_layerforward_CUDAPfS_S_S_ii'
GPGPU-Sim uArch: Shader 27 bind to kernel 1 '_Z22bpnn_layerforward_CUDAPfS_S_S_ii'
GPGPU-Sim uArch: Shader 0 bind to kernel 1 '_Z22bpnn_layerforward_CUDAPfS_S_S_ii'
GPGPU-Sim uArch: Shader 17 bind to kernel 1 '_Z22bpnn_layerforward_CUDAPfS_S_S_ii'
GPGPU-Sim uArch: Shader 18 bind to kernel 1 '_Z22bpnn_layerforward_CUDAPfS_S_S_ii'
GPGPU-Sim uArch: Shader 19 bind to kernel 1 '_Z22bpnn_layerforward_CUDAPfS_S_S_ii'
GPGPU-Sim uArch: Shader 20 bind to kernel 1 '_Z22bpnn_layerforward_CUDAPfS_S_S_ii'
GPGPU-Sim uArch: Shader 21 bind to kernel 1 '_Z22bpnn_layerforward_CUDAPfS_S_S_ii'
GPGPU-Sim uArch: Shader 22 bind to kernel 1 '_Z22bpnn_layerforward_CUDAPfS_S_S_ii'
GPGPU-Sim uArch: Shader 23 bind to kernel 1 '_Z22bpnn_layerforward_CUDAPfS_S_S_ii'
GPGPU-Sim uArch: Shader 24 bind to kernel 1 '_Z22bpnn_layerforward_CUDAPfS_S_S_ii'
GPGPU-Sim uArch: Shader 25 bind to kernel 1 '_Z22bpnn_layerforward_CUDAPfS_S_S_ii'
GPGPU-Sim uArch: Shader 26 bind to kernel 1 '_Z22bpnn_layerforward_CUDAPfS_S_S_ii'
GPGPU-Sim uArch: Shader 27 bind to kernel 1 '_Z22bpnn_layerforward_CUDAPfS_S_S_ii'
GPGPU-Sim uArch: Shader 0 bind to kernel 1 '_Z22bpnn_layerforward_CUDAPfS_S_S_ii'
GPGPU-Sim uArch: Shader 1 bind to kernel 1 '_Z22bpnn_layerforward_CUDAPfS_S_S_ii'
GPGPU-Sim uArch: Shader 2 bind to kernel 1 '_Z22bpnn_layerforward_CUDAPfS_S_S_ii'
GPGPU-Sim uArch: Shader 3 bind to kernel 1 '_Z22bpnn_layerforward_CUDAPfS_S_S_ii'
GPGPU-Sim uArch: Shader 4 bind to kernel 1 '_Z22bpnn_layerforward_CUDAPfS_S_S_ii'
GPGPU-Sim uArch: Shader 5 bind to kernel 1 '_Z22bpnn_layerforward_CUDAPfS_S_S_ii'
GPGPU-Sim uArch: Shader 6 bind to kernel 1 '_Z22bpnn_layerforward_CUDAPfS_S_S_ii'
GPGPU-Sim uArch: Shader 7 bind to kernel 1 '_Z22bpnn_layerforward_CUDAPfS_S_S_ii'
GPGPU-Sim uArch: Shader 8 bind to kernel 1 '_Z22bpnn_layerforward_CUDAPfS_S_S_ii'
GPGPU-Sim uArch: Shader 9 bind to kernel 1 '_Z22bpnn_layerforward_CUDAPfS_S_S_ii'
GPGPU-Sim uArch: Shader 10 bind to kernel 1 '_Z22bpnn_layerforward_CUDAPfS_S_S_ii'
GPGPU-Sim uArch: Shader 11 bind to kernel 1 '_Z22bpnn_layerforward_CUDAPfS_S_S_ii'
GPGPU-Sim uArch: Shader 12 bind to kernel 1 '_Z22bpnn_layerforward_CUDAPfS_S_S_ii'
GPGPU-Sim uArch: Shader 13 bind to kernel 1 '_Z22bpnn_layerforward_CUDAPfS_S_S_ii'
GPGPU-Sim uArch: Shader 14 bind to kernel 1 '_Z22bpnn_layerforward_CUDAPfS_S_S_ii'
GPGPU-Sim uArch: Shader 15 bind to kernel 1 '_Z22bpnn_layerforward_CUDAPfS_S_S_ii'
GPGPU-Sim uArch: Shader 16 bind to kernel 1 '_Z22bpnn_layerforward_CUDAPfS_S_S_ii'
GPGPU-Sim uArch: Shader 5 bind to kernel 1 '_Z22bpnn_layerforward_CUDAPfS_S_S_ii'
GPGPU-Sim uArch: Shader 8 bind to kernel 1 '_Z22bpnn_layerforward_CUDAPfS_S_S_ii'
GPGPU-Sim uArch: Shader 9 bind to kernel 1 '_Z22bpnn_layerforward_CUDAPfS_S_S_ii'
GPGPU-Sim uArch: Shader 14 bind to kernel 1 '_Z22bpnn_layerforward_CUDAPfS_S_S_ii'
GPGPU-Sim uArch: Shader 15 bind to kernel 1 '_Z22bpnn_layerforward_CUDAPfS_S_S_ii'
GPGPU-Sim uArch: Shader 17 bind to kernel 1 '_Z22bpnn_layerforward_CUDAPfS_S_S_ii'
GPGPU-Sim uArch: Shader 18 bind to kernel 1 '_Z22bpnn_layerforward_CUDAPfS_S_S_ii'
GPGPU-Sim uArch: Shader 19 bind to kernel 1 '_Z22bpnn_layerforward_CUDAPfS_S_S_ii'
GPGPU-Sim uArch: Shader 21 bind to kernel 1 '_Z22bpnn_layerforward_CUDAPfS_S_S_ii'
GPGPU-Sim uArch: Shader 22 bind to kernel 1 '_Z22bpnn_layerforward_CUDAPfS_S_S_ii'
GPGPU-Sim uArch: Shader 23 bind to kernel 1 '_Z22bpnn_layerforward_CUDAPfS_S_S_ii'
GPGPU-Sim uArch: Shader 26 bind to kernel 1 '_Z22bpnn_layerforward_CUDAPfS_S_S_ii'
GPGPU-Sim uArch: Shader 11 bind to kernel 1 '_Z22bpnn_layerforward_CUDAPfS_S_S_ii'
GPGPU-Sim uArch: Shader 16 bind to kernel 1 '_Z22bpnn_layerforward_CUDAPfS_S_S_ii'
GPGPU-Sim uArch: Shader 3 bind to kernel 1 '_Z22bpnn_layerforward_CUDAPfS_S_S_ii'
GPGPU-Sim uArch: Shader 4 bind to kernel 1 '_Z22bpnn_layerforward_CUDAPfS_S_S_ii'
GPGPU-Sim uArch: Shader 5 bind to kernel 1 '_Z22bpnn_layerforward_CUDAPfS_S_S_ii'
GPGPU-Sim uArch: Shader 6 bind to kernel 1 '_Z22bpnn_layerforward_CUDAPfS_S_S_ii'
GPGPU-Sim uArch: Shader 7 bind to kernel 1 '_Z22bpnn_layerforward_CUDAPfS_S_S_ii'
GPGPU-Sim uArch: Shader 8 bind to kernel 1 '_Z22bpnn_layerforward_CUDAPfS_S_S_ii'
GPGPU-Sim uArch: Shader 9 bind to kernel 1 '_Z22bpnn_layerforward_CUDAPfS_S_S_ii'
GPGPU-Sim uArch: Shader 10 bind to kernel 1 '_Z22bpnn_layerforward_CUDAPfS_S_S_ii'
GPGPU-Sim uArch: Shader 11 bind to kernel 1 '_Z22bpnn_layerforward_CUDAPfS_S_S_ii'
GPGPU-Sim uArch: Shader 12 bind to kernel 1 '_Z22bpnn_layerforward_CUDAPfS_S_S_ii'
GPGPU-Sim uArch: Shader 13 bind to kernel 1 '_Z22bpnn_layerforward_CUDAPfS_S_S_ii'
GPGPU-Sim uArch: Shader 14 bind to kernel 1 '_Z22bpnn_layerforward_CUDAPfS_S_S_ii'
GPGPU-Sim uArch: Shader 15 bind to kernel 1 '_Z22bpnn_layerforward_CUDAPfS_S_S_ii'
GPGPU-Sim uArch: Shader 16 bind to kernel 1 '_Z22bpnn_layerforward_CUDAPfS_S_S_ii'
GPGPU-Sim uArch: Shader 17 bind to kernel 1 '_Z22bpnn_layerforward_CUDAPfS_S_S_ii'
GPGPU-Sim uArch: Shader 18 bind to kernel 1 '_Z22bpnn_layerforward_CUDAPfS_S_S_ii'
GPGPU-Sim uArch: Shader 19 bind to kernel 1 '_Z22bpnn_layerforward_CUDAPfS_S_S_ii'
GPGPU-Sim uArch: Shader 20 bind to kernel 1 '_Z22bpnn_layerforward_CUDAPfS_S_S_ii'
GPGPU-Sim uArch: Shader 21 bind to kernel 1 '_Z22bpnn_layerforward_CUDAPfS_S_S_ii'
GPGPU-Sim uArch: Shader 22 bind to kernel 1 '_Z22bpnn_layerforward_CUDAPfS_S_S_ii'
GPGPU-Sim uArch: Shader 23 bind to kernel 1 '_Z22bpnn_layerforward_CUDAPfS_S_S_ii'
GPGPU-Sim uArch: Shader 24 bind to kernel 1 '_Z22bpnn_layerforward_CUDAPfS_S_S_ii'
GPGPU-Sim uArch: Shader 25 bind to kernel 1 '_Z22bpnn_layerforward_CUDAPfS_S_S_ii'
GPGPU-Sim uArch: Shader 26 bind to kernel 1 '_Z22bpnn_layerforward_CUDAPfS_S_S_ii'
GPGPU-Sim uArch: Shader 27 bind to kernel 1 '_Z22bpnn_layerforward_CUDAPfS_S_S_ii'
GPGPU-Sim uArch: Shader 0 bind to kernel 1 '_Z22bpnn_layerforward_CUDAPfS_S_S_ii'
GPGPU-Sim uArch: Shader 1 bind to kernel 1 '_Z22bpnn_layerforward_CUDAPfS_S_S_ii'
GPGPU-Sim uArch: Shader 2 bind to kernel 1 '_Z22bpnn_layerforward_CUDAPfS_S_S_ii'
GPGPU-Sim uArch: Shader 3 bind to kernel 1 '_Z22bpnn_layerforward_CUDAPfS_S_S_ii'
GPGPU-Sim uArch: Shader 4 bind to kernel 1 '_Z22bpnn_layerforward_CUDAPfS_S_S_ii'
GPGPU-Sim uArch: Shader 5 bind to kernel 1 '_Z22bpnn_layerforward_CUDAPfS_S_S_ii'
GPGPU-Sim uArch: Shader 6 bind to kernel 1 '_Z22bpnn_layerforward_CUDAPfS_S_S_ii'
GPGPU-Sim uArch: Shader 7 bind to kernel 1 '_Z22bpnn_layerforward_CUDAPfS_S_S_ii'
GPGPU-Sim uArch: Shader 8 bind to kernel 1 '_Z22bpnn_layerforward_CUDAPfS_S_S_ii'
GPGPU-Sim uArch: Shader 9 bind to kernel 1 '_Z22bpnn_layerforward_CUDAPfS_S_S_ii'
GPGPU-Sim uArch: Shader 10 bind to kernel 1 '_Z22bpnn_layerforward_CUDAPfS_S_S_ii'
GPGPU-Sim uArch: Shader 11 bind to kernel 1 '_Z22bpnn_layerforward_CUDAPfS_S_S_ii'
GPGPU-Sim uArch: Shader 12 bind to kernel 1 '_Z22bpnn_layerforward_CUDAPfS_S_S_ii'
GPGPU-Sim uArch: Shader 13 bind to kernel 1 '_Z22bpnn_layerforward_CUDAPfS_S_S_ii'
GPGPU-Sim uArch: Shader 14 bind to kernel 1 '_Z22bpnn_layerforward_CUDAPfS_S_S_ii'
GPGPU-Sim uArch: Shader 15 bind to kernel 1 '_Z22bpnn_layerforward_CUDAPfS_S_S_ii'
GPGPU-Sim uArch: Shader 16 bind to kernel 1 '_Z22bpnn_layerforward_CUDAPfS_S_S_ii'
GPGPU-Sim uArch: Shader 17 bind to kernel 1 '_Z22bpnn_layerforward_CUDAPfS_S_S_ii'
GPGPU-Sim uArch: Shader 18 bind to kernel 1 '_Z22bpnn_layerforward_CUDAPfS_S_S_ii'
GPGPU-Sim uArch: Shader 19 bind to kernel 1 '_Z22bpnn_layerforward_CUDAPfS_S_S_ii'
GPGPU-Sim uArch: Shader 20 bind to kernel 1 '_Z22bpnn_layerforward_CUDAPfS_S_S_ii'
GPGPU-Sim uArch: Shader 21 bind to kernel 1 '_Z22bpnn_layerforward_CUDAPfS_S_S_ii'
GPGPU-Sim uArch: Shader 22 bind to kernel 1 '_Z22bpnn_layerforward_CUDAPfS_S_S_ii'
GPGPU-Sim uArch: Shader 23 bind to kernel 1 '_Z22bpnn_layerforward_CUDAPfS_S_S_ii'
GPGPU-Sim uArch: Shader 24 bind to kernel 1 '_Z22bpnn_layerforward_CUDAPfS_S_S_ii'
GPGPU-Sim uArch: Shader 25 bind to kernel 1 '_Z22bpnn_layerforward_CUDAPfS_S_S_ii'
GPGPU-Sim uArch: Shader 26 bind to kernel 1 '_Z22bpnn_layerforward_CUDAPfS_S_S_ii'
GPGPU-Sim uArch: Shader 27 bind to kernel 1 '_Z22bpnn_layerforward_CUDAPfS_S_S_ii'
GPGPU-Sim uArch: Shader 0 bind to kernel 1 '_Z22bpnn_layerforward_CUDAPfS_S_S_ii'
GPGPU-Sim uArch: Shader 1 bind to kernel 1 '_Z22bpnn_layerforward_CUDAPfS_S_S_ii'
GPGPU-Sim uArch: Shader 2 bind to kernel 1 '_Z22bpnn_layerforward_CUDAPfS_S_S_ii'
GPGPU-Sim uArch: Shader 25 bind to kernel 1 '_Z22bpnn_layerforward_CUDAPfS_S_S_ii'
GPGPU-Sim uArch: Shader 1 bind to kernel 1 '_Z22bpnn_layerforward_CUDAPfS_S_S_ii'
GPGPU-Sim uArch: Shader 6 bind to kernel 1 '_Z22bpnn_layerforward_CUDAPfS_S_S_ii'
GPGPU-Sim uArch: Shader 7 bind to kernel 1 '_Z22bpnn_layerforward_CUDAPfS_S_S_ii'
GPGPU-Sim uArch: Shader 8 bind to kernel 1 '_Z22bpnn_layerforward_CUDAPfS_S_S_ii'
GPGPU-Sim uArch: Shader 10 bind to kernel 1 '_Z22bpnn_layerforward_CUDAPfS_S_S_ii'
GPGPU-Sim uArch: Shader 11 bind to kernel 1 '_Z22bpnn_layerforward_CUDAPfS_S_S_ii'
GPGPU-Sim uArch: Shader 18 bind to kernel 1 '_Z22bpnn_layerforward_CUDAPfS_S_S_ii'
GPGPU-Sim uArch: Shader 23 bind to kernel 1 '_Z22bpnn_layerforward_CUDAPfS_S_S_ii'
GPGPU-Sim uArch: Shader 14 bind to kernel 1 '_Z22bpnn_layerforward_CUDAPfS_S_S_ii'
GPGPU-Sim uArch: Shader 16 bind to kernel 1 '_Z22bpnn_layerforward_CUDAPfS_S_S_ii'
GPGPU-Sim uArch: Shader 17 bind to kernel 1 '_Z22bpnn_layerforward_CUDAPfS_S_S_ii'
GPGPU-Sim uArch: Shader 18 bind to kernel 1 '_Z22bpnn_layerforward_CUDAPfS_S_S_ii'
GPGPU-Sim uArch: Shader 19 bind to kernel 1 '_Z22bpnn_layerforward_CUDAPfS_S_S_ii'
GPGPU-Sim uArch: Shader 20 bind to kernel 1 '_Z22bpnn_layerforward_CUDAPfS_S_S_ii'
GPGPU-Sim uArch: Shader 21 bind to kernel 1 '_Z22bpnn_layerforward_CUDAPfS_S_S_ii'
GPGPU-Sim uArch: Shader 22 bind to kernel 1 '_Z22bpnn_layerforward_CUDAPfS_S_S_ii'
GPGPU-Sim uArch: Shader 23 bind to kernel 1 '_Z22bpnn_layerforward_CUDAPfS_S_S_ii'
GPGPU-Sim uArch: Shader 24 bind to kernel 1 '_Z22bpnn_layerforward_CUDAPfS_S_S_ii'
GPGPU-Sim uArch: Shader 25 bind to kernel 1 '_Z22bpnn_layerforward_CUDAPfS_S_S_ii'
GPGPU-Sim uArch: Shader 26 bind to kernel 1 '_Z22bpnn_layerforward_CUDAPfS_S_S_ii'
GPGPU-Sim uArch: Shader 27 bind to kernel 1 '_Z22bpnn_layerforward_CUDAPfS_S_S_ii'
GPGPU-Sim uArch: Shader 0 bind to kernel 1 '_Z22bpnn_layerforward_CUDAPfS_S_S_ii'
GPGPU-Sim uArch: Shader 1 bind to kernel 1 '_Z22bpnn_layerforward_CUDAPfS_S_S_ii'
GPGPU-Sim uArch: Shader 2 bind to kernel 1 '_Z22bpnn_layerforward_CUDAPfS_S_S_ii'
GPGPU-Sim uArch: Shader 3 bind to kernel 1 '_Z22bpnn_layerforward_CUDAPfS_S_S_ii'
GPGPU-Sim uArch: Shader 4 bind to kernel 1 '_Z22bpnn_layerforward_CUDAPfS_S_S_ii'
GPGPU-Sim uArch: Shader 5 bind to kernel 1 '_Z22bpnn_layerforward_CUDAPfS_S_S_ii'
GPGPU-Sim uArch: Shader 6 bind to kernel 1 '_Z22bpnn_layerforward_CUDAPfS_S_S_ii'
GPGPU-Sim uArch: Shader 7 bind to kernel 1 '_Z22bpnn_layerforward_CUDAPfS_S_S_ii'
GPGPU-Sim uArch: Shader 8 bind to kernel 1 '_Z22bpnn_layerforward_CUDAPfS_S_S_ii'
GPGPU-Sim uArch: Shader 10 bind to kernel 1 '_Z22bpnn_layerforward_CUDAPfS_S_S_ii'
GPGPU-Sim uArch: Shader 11 bind to kernel 1 '_Z22bpnn_layerforward_CUDAPfS_S_S_ii'
GPGPU-Sim uArch: Shader 12 bind to kernel 1 '_Z22bpnn_layerforward_CUDAPfS_S_S_ii'
GPGPU-Sim uArch: Shader 15 bind to kernel 1 '_Z22bpnn_layerforward_CUDAPfS_S_S_ii'
GPGPU-Sim uArch: Shader 19 bind to kernel 1 '_Z22bpnn_layerforward_CUDAPfS_S_S_ii'
GPGPU-Sim uArch: Shader 5 bind to kernel 1 '_Z22bpnn_layerforward_CUDAPfS_S_S_ii'
GPGPU-Sim uArch: Shader 14 bind to kernel 1 '_Z22bpnn_layerforward_CUDAPfS_S_S_ii'
GPGPU-Sim uArch: Shader 18 bind to kernel 1 '_Z22bpnn_layerforward_CUDAPfS_S_S_ii'
GPGPU-Sim uArch: Shader 22 bind to kernel 1 '_Z22bpnn_layerforward_CUDAPfS_S_S_ii'
GPGPU-Sim uArch: Shader 23 bind to kernel 1 '_Z22bpnn_layerforward_CUDAPfS_S_S_ii'
GPGPU-Sim uArch: Shader 24 bind to kernel 1 '_Z22bpnn_layerforward_CUDAPfS_S_S_ii'
GPGPU-Sim uArch: Shader 26 bind to kernel 1 '_Z22bpnn_layerforward_CUDAPfS_S_S_ii'
GPGPU-Sim uArch: Shader 1 bind to kernel 1 '_Z22bpnn_layerforward_CUDAPfS_S_S_ii'
GPGPU-Sim uArch: Shader 7 bind to kernel 1 '_Z22bpnn_layerforward_CUDAPfS_S_S_ii'
GPGPU-Sim uArch: Shader 8 bind to kernel 1 '_Z22bpnn_layerforward_CUDAPfS_S_S_ii'
GPGPU-Sim uArch: Shader 9 bind to kernel 1 '_Z22bpnn_layerforward_CUDAPfS_S_S_ii'
GPGPU-Sim uArch: Shader 23 bind to kernel 1 '_Z22bpnn_layerforward_CUDAPfS_S_S_ii'
GPGPU-Sim uArch: Shader 24 bind to kernel 1 '_Z22bpnn_layerforward_CUDAPfS_S_S_ii'
GPGPU-Sim uArch: Shader 25 bind to kernel 1 '_Z22bpnn_layerforward_CUDAPfS_S_S_ii'
GPGPU-Sim uArch: Shader 26 bind to kernel 1 '_Z22bpnn_layerforward_CUDAPfS_S_S_ii'
GPGPU-Sim uArch: Shader 27 bind to kernel 1 '_Z22bpnn_layerforward_CUDAPfS_S_S_ii'
GPGPU-Sim uArch: Shader 1 bind to kernel 1 '_Z22bpnn_layerforward_CUDAPfS_S_S_ii'
GPGPU-Sim uArch: Shader 2 bind to kernel 1 '_Z22bpnn_layerforward_CUDAPfS_S_S_ii'
GPGPU-Sim uArch: Shader 3 bind to kernel 1 '_Z22bpnn_layerforward_CUDAPfS_S_S_ii'
GPGPU-Sim uArch: Shader 4 bind to kernel 1 '_Z22bpnn_layerforward_CUDAPfS_S_S_ii'
GPGPU-Sim uArch: Shader 5 bind to kernel 1 '_Z22bpnn_layerforward_CUDAPfS_S_S_ii'
GPGPU-Sim uArch: Shader 6 bind to kernel 1 '_Z22bpnn_layerforward_CUDAPfS_S_S_ii'
GPGPU-Sim uArch: Shader 7 bind to kernel 1 '_Z22bpnn_layerforward_CUDAPfS_S_S_ii'
GPGPU-Sim uArch: Shader 8 bind to kernel 1 '_Z22bpnn_layerforward_CUDAPfS_S_S_ii'
GPGPU-Sim uArch: Shader 9 bind to kernel 1 '_Z22bpnn_layerforward_CUDAPfS_S_S_ii'
GPGPU-Sim uArch: Shader 10 bind to kernel 1 '_Z22bpnn_layerforward_CUDAPfS_S_S_ii'
GPGPU-Sim uArch: Shader 11 bind to kernel 1 '_Z22bpnn_layerforward_CUDAPfS_S_S_ii'
GPGPU-Sim uArch: Shader 12 bind to kernel 1 '_Z22bpnn_layerforward_CUDAPfS_S_S_ii'
GPGPU-Sim uArch: Shader 13 bind to kernel 1 '_Z22bpnn_layerforward_CUDAPfS_S_S_ii'
GPGPU-Sim uArch: Shader 14 bind to kernel 1 '_Z22bpnn_layerforward_CUDAPfS_S_S_ii'
GPGPU-Sim uArch: Shader 15 bind to kernel 1 '_Z22bpnn_layerforward_CUDAPfS_S_S_ii'
GPGPU-Sim uArch: Shader 17 bind to kernel 1 '_Z22bpnn_layerforward_CUDAPfS_S_S_ii'
GPGPU-Sim uArch: Shader 18 bind to kernel 1 '_Z22bpnn_layerforward_CUDAPfS_S_S_ii'
GPGPU-Sim uArch: Shader 19 bind to kernel 1 '_Z22bpnn_layerforward_CUDAPfS_S_S_ii'
GPGPU-Sim uArch: Shader 20 bind to kernel 1 '_Z22bpnn_layerforward_CUDAPfS_S_S_ii'
GPGPU-Sim uArch: Shader 21 bind to kernel 1 '_Z22bpnn_layerforward_CUDAPfS_S_S_ii'
GPGPU-Sim uArch: Shader 0 bind to kernel 1 '_Z22bpnn_layerforward_CUDAPfS_S_S_ii'
Destroy streams for kernel 1: size 0
kernel_name = _Z22bpnn_layerforward_CUDAPfS_S_S_ii 
kernel_launch_uid = 1 
gpu_sim_cycle = 1393059
gpu_sim_insn = 224892096
gpu_ipc =     161.4376
gpu_tot_sim_cycle = 1615209
gpu_tot_sim_insn = 224892096
gpu_tot_ipc =     139.2341
gpu_tot_issued_cta = 8191
max_total_param_size = 0
gpu_stall_dramfull = 73846
gpu_stall_icnt2sh    = 283802
partiton_reqs_in_parallel = 30573452
partiton_reqs_in_parallel_total    = 0
partiton_level_parallism =      21.9470
partiton_level_parallism_total  =      18.9285
partiton_reqs_in_parallel_util = 30573452
partiton_reqs_in_parallel_util_total    = 0
gpu_sim_cycle_parition_util = 1391125
gpu_tot_sim_cycle_parition_util    = 0
partiton_level_parallism_util =      21.9775
partiton_level_parallism_util_total  =      21.9775
partiton_replys_in_parallel = 397459
partiton_replys_in_parallel_total    = 0
L2_BW  =      27.0432 GB/Sec
L2_BW_total  =      23.3238 GB/Sec
gpu_total_sim_rate=110784

========= Core cache stats =========
L1I_cache:
	L1I_total_cache_accesses = 4677061
	L1I_total_cache_misses = 3489
	L1I_total_cache_miss_rate = 0.0007
	L1I_total_cache_pending_hits = 0
	L1I_total_cache_reservation_fails = 6846
L1D_cache:
	L1D_cache_core[0]: Access = 0, Miss = 0, Miss_rate = -nan, Pending_hits = 0, Reservation_fails = 0
	L1D_cache_core[1]: Access = 0, Miss = 0, Miss_rate = -nan, Pending_hits = 0, Reservation_fails = 0
	L1D_cache_core[2]: Access = 0, Miss = 0, Miss_rate = -nan, Pending_hits = 0, Reservation_fails = 0
	L1D_cache_core[3]: Access = 0, Miss = 0, Miss_rate = -nan, Pending_hits = 0, Reservation_fails = 0
	L1D_cache_core[4]: Access = 0, Miss = 0, Miss_rate = -nan, Pending_hits = 0, Reservation_fails = 0
	L1D_cache_core[5]: Access = 0, Miss = 0, Miss_rate = -nan, Pending_hits = 0, Reservation_fails = 0
	L1D_cache_core[6]: Access = 0, Miss = 0, Miss_rate = -nan, Pending_hits = 0, Reservation_fails = 0
	L1D_cache_core[7]: Access = 0, Miss = 0, Miss_rate = -nan, Pending_hits = 0, Reservation_fails = 0
	L1D_cache_core[8]: Access = 0, Miss = 0, Miss_rate = -nan, Pending_hits = 0, Reservation_fails = 0
	L1D_cache_core[9]: Access = 0, Miss = 0, Miss_rate = -nan, Pending_hits = 0, Reservation_fails = 0
	L1D_cache_core[10]: Access = 0, Miss = 0, Miss_rate = -nan, Pending_hits = 0, Reservation_fails = 0
	L1D_cache_core[11]: Access = 0, Miss = 0, Miss_rate = -nan, Pending_hits = 0, Reservation_fails = 0
	L1D_cache_core[12]: Access = 0, Miss = 0, Miss_rate = -nan, Pending_hits = 0, Reservation_fails = 0
	L1D_cache_core[13]: Access = 0, Miss = 0, Miss_rate = -nan, Pending_hits = 0, Reservation_fails = 0
	L1D_cache_core[14]: Access = 0, Miss = 0, Miss_rate = -nan, Pending_hits = 0, Reservation_fails = 0
	L1D_cache_core[15]: Access = 0, Miss = 0, Miss_rate = -nan, Pending_hits = 0, Reservation_fails = 0
	L1D_cache_core[16]: Access = 0, Miss = 0, Miss_rate = -nan, Pending_hits = 0, Reservation_fails = 0
	L1D_cache_core[17]: Access = 0, Miss = 0, Miss_rate = -nan, Pending_hits = 0, Reservation_fails = 0
	L1D_cache_core[18]: Access = 0, Miss = 0, Miss_rate = -nan, Pending_hits = 0, Reservation_fails = 0
	L1D_cache_core[19]: Access = 0, Miss = 0, Miss_rate = -nan, Pending_hits = 0, Reservation_fails = 0
	L1D_cache_core[20]: Access = 0, Miss = 0, Miss_rate = -nan, Pending_hits = 0, Reservation_fails = 0
	L1D_cache_core[21]: Access = 0, Miss = 0, Miss_rate = -nan, Pending_hits = 0, Reservation_fails = 0
	L1D_cache_core[22]: Access = 0, Miss = 0, Miss_rate = -nan, Pending_hits = 0, Reservation_fails = 0
	L1D_cache_core[23]: Access = 0, Miss = 0, Miss_rate = -nan, Pending_hits = 0, Reservation_fails = 0
	L1D_cache_core[24]: Access = 0, Miss = 0, Miss_rate = -nan, Pending_hits = 0, Reservation_fails = 0
	L1D_cache_core[25]: Access = 0, Miss = 0, Miss_rate = -nan, Pending_hits = 0, Reservation_fails = 0
	L1D_cache_core[26]: Access = 0, Miss = 0, Miss_rate = -nan, Pending_hits = 0, Reservation_fails = 0
	L1D_cache_core[27]: Access = 0, Miss = 0, Miss_rate = -nan, Pending_hits = 0, Reservation_fails = 0
	L1D_total_cache_accesses = 0
	L1D_total_cache_misses = 0
	L1D_total_cache_pending_hits = 0
	L1D_total_cache_reservation_fails = 0
	L1D_cache_data_port_util = 0.000
	L1D_cache_fill_port_util = 0.000
L1C_cache:
	L1C_total_cache_accesses = 262112
	L1C_total_cache_misses = 1792
	L1C_total_cache_miss_rate = 0.0068
	L1C_total_cache_pending_hits = 0
	L1C_total_cache_reservation_fails = 4886
L1T_cache:
	L1T_total_cache_accesses = 0
	L1T_total_cache_misses = 0
	L1T_total_cache_pending_hits = 0
	L1T_total_cache_reservation_fails = 0

Total_core_cache_stats:
	Total_core_cache_stats_breakdown[GLOBAL_ACC_R][HIT] = 0
	Total_core_cache_stats_breakdown[GLOBAL_ACC_R][HIT_RESERVED] = 0
	Total_core_cache_stats_breakdown[GLOBAL_ACC_R][MISS] = 0
	Total_core_cache_stats_breakdown[GLOBAL_ACC_R][RESERVATION_FAIL] = 0
	Total_core_cache_stats_breakdown[LOCAL_ACC_R][HIT] = 0
	Total_core_cache_stats_breakdown[LOCAL_ACC_R][HIT_RESERVED] = 0
	Total_core_cache_stats_breakdown[LOCAL_ACC_R][MISS] = 0
	Total_core_cache_stats_breakdown[LOCAL_ACC_R][RESERVATION_FAIL] = 0
	Total_core_cache_stats_breakdown[CONST_ACC_R][HIT] = 260320
	Total_core_cache_stats_breakdown[CONST_ACC_R][HIT_RESERVED] = 0
	Total_core_cache_stats_breakdown[CONST_ACC_R][MISS] = 1792
	Total_core_cache_stats_breakdown[CONST_ACC_R][RESERVATION_FAIL] = 4886
	Total_core_cache_stats_breakdown[TEXTURE_ACC_R][HIT] = 0
	Total_core_cache_stats_breakdown[TEXTURE_ACC_R][HIT_RESERVED] = 0
	Total_core_cache_stats_breakdown[TEXTURE_ACC_R][MISS] = 0
	Total_core_cache_stats_breakdown[TEXTURE_ACC_R][RESERVATION_FAIL] = 0
	Total_core_cache_stats_breakdown[GLOBAL_ACC_W][HIT] = 0
	Total_core_cache_stats_breakdown[GLOBAL_ACC_W][HIT_RESERVED] = 0
	Total_core_cache_stats_breakdown[GLOBAL_ACC_W][MISS] = 0
	Total_core_cache_stats_breakdown[GLOBAL_ACC_W][RESERVATION_FAIL] = 0
	Total_core_cache_stats_breakdown[LOCAL_ACC_W][HIT] = 0
	Total_core_cache_stats_breakdown[LOCAL_ACC_W][HIT_RESERVED] = 0
	Total_core_cache_stats_breakdown[LOCAL_ACC_W][MISS] = 0
	Total_core_cache_stats_breakdown[LOCAL_ACC_W][RESERVATION_FAIL] = 0
	Total_core_cache_stats_breakdown[L1_WRBK_ACC][HIT] = 0
	Total_core_cache_stats_breakdown[L1_WRBK_ACC][HIT_RESERVED] = 0
	Total_core_cache_stats_breakdown[L1_WRBK_ACC][MISS] = 0
	Total_core_cache_stats_breakdown[L1_WRBK_ACC][RESERVATION_FAIL] = 0
	Total_core_cache_stats_breakdown[L2_WRBK_ACC][HIT] = 0
	Total_core_cache_stats_breakdown[L2_WRBK_ACC][HIT_RESERVED] = 0
	Total_core_cache_stats_breakdown[L2_WRBK_ACC][MISS] = 0
	Total_core_cache_stats_breakdown[L2_WRBK_ACC][RESERVATION_FAIL] = 0
	Total_core_cache_stats_breakdown[INST_ACC_R][HIT] = 4673572
	Total_core_cache_stats_breakdown[INST_ACC_R][HIT_RESERVED] = 0
	Total_core_cache_stats_breakdown[INST_ACC_R][MISS] = 3489
	Total_core_cache_stats_breakdown[INST_ACC_R][RESERVATION_FAIL] = 6846
	Total_core_cache_stats_breakdown[L1_WR_ALLOC_R][HIT] = 0
	Total_core_cache_stats_breakdown[L1_WR_ALLOC_R][HIT_RESERVED] = 0
	Total_core_cache_stats_breakdown[L1_WR_ALLOC_R][MISS] = 0
	Total_core_cache_stats_breakdown[L1_WR_ALLOC_R][RESERVATION_FAIL] = 0
	Total_core_cache_stats_breakdown[L2_WR_ALLOC_R][HIT] = 0
	Total_core_cache_stats_breakdown[L2_WR_ALLOC_R][HIT_RESERVED] = 0
	Total_core_cache_stats_breakdown[L2_WR_ALLOC_R][MISS] = 0
	Total_core_cache_stats_breakdown[L2_WR_ALLOC_R][RESERVATION_FAIL] = 0
	Total_core_cache_stats_breakdown[CONST_ACC_R][TOTAL_ACCESS] = 262112
	Total_core_cache_stats_breakdown[INST_ACC_R][TOTAL_ACCESS] = 4677061
Shader 0 warp_id issue ditsribution:
warp_id:
0, 1, 2, 3, 4, 5, 6, 7, 8, 9, 10, 11, 12, 13, 14, 15, 16, 17, 18, 19, 20, 21, 22, 23, 24, 25, 26, 27, 28, 29, 30, 31, 32, 33, 34, 35, 36, 37, 38, 39, 40, 41, 42, 43, 44, 45, 46, 47, 48, 49, 50, 51, 52, 53, 54, 55, 56, 57, 58, 59, 60, 61, 62, 63, 
distro:
7041, 5588, 6066, 5581, 6577, 5573, 6110, 5606, 7038, 5572, 6057, 5565, 6567, 5568, 6102, 5606, 6864, 5432, 5911, 5429, 6407, 5437, 5953, 5464, 6682, 5290, 5752, 5280, 6241, 5281, 5797, 5316, 6505, 5146, 5599, 5146, 6066, 5132, 5631, 5169, 6138, 4853, 5285, 4849, 5726, 4851, 5324, 4875, 6139, 4853, 5282, 4856, 5723, 4843, 5319, 4874, 5957, 4711, 5130, 4712, 5558, 4709, 5161, 4739, 
gpgpu_n_tot_thrd_icount = 284391520
gpgpu_n_tot_w_icount = 8887235
gpgpu_n_stall_shd_mem = 283456
gpgpu_n_mem_read_local = 0
gpgpu_n_mem_write_local = 0
gpgpu_n_mem_read_global = 200679
gpgpu_n_mem_write_global = 196584
gpgpu_n_mem_texture = 0
gpgpu_n_mem_const = 28
gpgpu_n_load_insn  = 2227952
gpgpu_n_store_insn = 2227952
gpgpu_n_shmem_insn = 16644112
gpgpu_n_tex_insn = 0
gpgpu_n_const_mem_insn = 0
gpgpu_n_param_mem_insn = 8387584
gpgpu_n_shmem_bkconflict = 0
gpgpu_n_cache_bkconflict = 0
gpgpu_n_intrawarp_mshr_merge = 0
gpgpu_n_cmem_portconflict = 4886
gpgpu_stall_shd_mem[c_mem][bk_conf] = 4886
gpgpu_stall_shd_mem[c_mem][mshr_rc] = 0
gpgpu_stall_shd_mem[c_mem][icnt_rc] = 0
gpgpu_stall_shd_mem[c_mem][data_port_stall] = 0
gpgpu_stall_shd_mem[t_mem][mshr_rc] = 0
gpgpu_stall_shd_mem[t_mem][icnt_rc] = 0
gpgpu_stall_shd_mem[t_mem][data_port_stall] = 0
gpgpu_stall_shd_mem[s_mem][bk_conf] = 0
gpgpu_stall_shd_mem[gl_mem][bk_conf] = 0
gpgpu_stall_shd_mem[gl_mem][coal_stall] = 267590
gpgpu_stall_shd_mem[gl_mem][data_port_stall] = 0
gpgpu_stall_shd_mem[g_mem_ld][mshr_rc] = 0
gpgpu_stall_shd_mem[g_mem_ld][icnt_rc] = 10980
gpgpu_stall_shd_mem[g_mem_ld][wb_icnt_rc] = 0
gpgpu_stall_shd_mem[g_mem_ld][wb_rsrv_fail] = 0
gpgpu_stall_shd_mem[g_mem_st][mshr_rc] = 0
gpgpu_stall_shd_mem[g_mem_st][icnt_rc] = 0
gpgpu_stall_shd_mem[g_mem_st][wb_icnt_rc] = 0
gpgpu_stall_shd_mem[g_mem_st][wb_rsrv_fail] = 0
gpgpu_stall_shd_mem[l_mem_ld][mshr_rc] = 0
gpgpu_stall_shd_mem[l_mem_ld][icnt_rc] = 0
gpgpu_stall_shd_mem[l_mem_ld][wb_icnt_rc] = 0
gpgpu_stall_shd_mem[l_mem_ld][wb_rsrv_fail] = 0
gpgpu_stall_shd_mem[l_mem_st][mshr_rc] = 0
gpgpu_stall_shd_mem[l_mem_st][icnt_rc] = 0
gpgpu_stall_shd_mem[l_mem_ld][wb_icnt_rc] = 0
gpgpu_stall_shd_mem[l_mem_ld][wb_rsrv_fail] = 0
gpu_reg_bank_conflict_stalls = 0
Warp Occupancy Distribution:
Stall:360088	W0_Idle:11524835	W0_Scoreboard:58409412	W1:0	W2:1048448	W3:0	W4:0	W5:0	W6:0	W7:0	W8:0	W9:0	W10:0	W11:0	W12:0	W13:0	W14:0	W15:0	W16:1351515	W17:0	W18:0	W19:0	W20:0	W21:0	W22:0	W23:0	W24:0	W25:0	W26:0	W27:0	W28:0	W29:0	W30:0	W31:0	W32:6487272
traffic_breakdown_coretomem[CONST_ACC_R] = 224 {8:28,}
traffic_breakdown_coretomem[GLOBAL_ACC_R] = 1605432 {8:200679,}
traffic_breakdown_coretomem[GLOBAL_ACC_W] = 15202464 {40:98293,72:32763,136:65528,}
traffic_breakdown_coretomem[INST_ACC_R] = 1344 {8:168,}
traffic_breakdown_memtocore[CONST_ACC_R] = 2016 {72:28,}
traffic_breakdown_memtocore[GLOBAL_ACC_R] = 16021592 {40:90101,72:40954,136:69624,}
traffic_breakdown_memtocore[GLOBAL_ACC_W] = 1572672 {8:196584,}
traffic_breakdown_memtocore[INST_ACC_R] = 22848 {136:168,}
maxmrqlatency = 872 
maxdqlatency = 0 
maxmflatency = 126650 
averagemflatency = 3787 
max_icnt2mem_latency = 126392 
max_icnt2sh_latency = 1615208 
mrq_lat_table:52271 	4100 	7000 	18979 	33386 	20871 	14822 	13693 	14249 	1850 	0 	0 	0 	0 	0 	0 	0 	0 	0 	0 	0 	0 	0 	0 	0 	0 	0 	0 	0 	0 	0 	0 	
dq_lat_table:0 	0 	0 	0 	0 	0 	0 	0 	0 	0 	0 	0 	0 	0 	0 	0 	0 	0 	0 	0 	0 	0 	0 	0 	0 	0 	0 	0 	0 	0 	0 	0 	
mf_lat_table:0 	0 	0 	0 	0 	0 	0 	185019 	151075 	18029 	4614 	3027 	0 	6110 	10092 	16506 	2819 	0 	0 	0 	0 	0 	0 	0 	0 	0 	0 	0 	0 	0 	0 	0 	
icnt2mem_lat_table:0 	0 	72171 	120474 	9253 	240 	148574 	7299 	334 	113 	447 	3027 	0 	6222 	12859 	13627 	2819 	0 	0 	0 	0 	0 	0 	0 	
icnt2sh_lat_table:0 	0 	59118 	97312 	41242 	2983 	52 	0 	0 	0 	0 	0 	0 	0 	0 	0 	0 	2160 	22848 	79416 	92160 	0 	0 	0 	
mf_lat_pw_table:0 	0 	0 	0 	0 	0 	0 	259 	121 	22 	1 	24 	3 	17 	26 	22 	5 	0 	0 	0 	0 	0 	0 	0 	0 	0 	0 	0 	0 	0 	0 	0 	
maximum concurrent accesses to same row:
dram[0]:        79        69        91        95        26        33        43        51        51        52        48        44        85        85        60        76 
dram[1]:        77        71        95        87        27        32        25        26        55        52        30        72        85        85        69        61 
dram[2]:        86        80        95        93        35        51        34        43        68        60        69        35        85        85        69        69 
dram[3]:        76        74        79       103        35        51        26        33        68        60        48        43        85        85        77        69 
dram[4]:        77        73       100        86        34        43        26        42        59        68        45        35        85        85        66        60 
dram[5]:        77        70        90        70        26        41        28        34        60        60        51        34        85        85        69        69 
dram[6]:        75        55        85        68        27        26        33        34        68        50        51        39        85        85        68        77 
dram[7]:        68        60        86        92        27        26        34        41        60        68        43        43        85        85        74        61 
dram[8]:        67        77        94        86        35        27        41        42        60        60        37        40       102       102        79        94 
dram[9]:        68        77        88        86        42        35        34        43        51        43        54        43        85        85        86        69 
dram[10]:        77        69        87        83        42        31        36        51        52        43        51        38        85        85        69        85 
maximum service time to same row:
dram[0]:    134538    134539    131500    131501    131641    131587    150723    150719    150386    150386    149774    149767    149521    149524    145684    145616 
dram[1]:    134537    134537    131481    131460    131644    131582    150703    150703    150390    150396    149759    149758    149528    149523    145304    145609 
dram[2]:    134532    134531    131462    131465    131630    131565    150700    150717    150396    150392    149759    149759    149474    149468    145692    145682 
dram[3]:    134536    134562    131466    131458    131625    131562    150714    150700    150391    150393    149761    149761    149485    149498    145681    145605 
dram[4]:    134562    134537    131457    131456    131618    131560    150705    150688    150422    150404    149761    149650    149499    149478    128604    130630 
dram[5]:    134517    134539    131439    131454    131665    131612    150715    150717    150403    150405    149649    149669    149477    149491    130508    128640 
dram[6]:    134538    134561    131455    131483    131666    131604    150717    150710    150379    150378    149668    149638    149491    149532    130493    128649 
dram[7]:    146362    146212    131484    131494    131656    131592    150707    150706    150372    150372    149666    149665    149532    149460    128644    130573 
dram[8]:    146322    146125    131495    131491    131630    131565    150707    150708    150412    150410    149680    149679    149459    149458    128533    130515 
dram[9]:    146202    146335    131511    131503    131666    131608    150700    150695    150409    150413    149686    149697    149513    149536    128470    130747 
dram[10]:    146188    146116    131503    131503    131706    131649    150678    150672    150415    150415    149679    149764    149546    149539    128371    130677 
average row accesses per activate:
dram[0]:  5.112108  5.310502  5.384615  5.636793  4.255605  4.449541  4.444445  4.911917  4.676768  4.714286  3.880342  4.107143  5.805555  5.929824  5.532663  5.826530 
dram[1]:  5.437209  5.035714  5.712919  5.926108  3.995781  4.322727  4.246511  4.500000  4.646766  4.777202  3.890295  4.056522  5.705555  5.701657  5.705000  5.735450 
dram[2]:  5.325688  5.273973  5.674641  5.606796  4.436620  4.850746  4.421801  4.521951  4.801021  4.729592  3.943965  3.900862  5.681081  5.615385  5.671717  6.015625 
dram[3]:  4.766667  4.934210  5.909091  5.939394  4.328829  4.625000  4.273585  4.581281  4.751244  4.823232  3.969957  4.431280  5.321243  5.736264  5.729064  5.554455 
dram[4]:  5.021008  5.060606  5.582160  5.439815  4.379630  4.802031  4.500000  4.714286  4.663366  4.963351  4.137168  4.102679  5.731843  6.047059  5.608040  5.306220 
dram[5]:  4.789916  5.348624  5.625592  5.687805  4.342466  4.603865  4.121622  4.623763  4.239631  4.608911  4.209091  4.473684  6.051136  5.827586  5.415459  5.685279 
dram[6]:  5.026087  4.769231  5.437788  5.273585  4.142222  4.373832  4.200913  4.752525  4.600985  4.549505  4.339535  4.643564  5.763736  6.260355  5.683673  6.069149 
dram[7]:  4.809917  4.899159  5.269406  5.753695  4.292793  4.458333  4.111111  4.600985  4.658291  4.973958  4.263889  4.452381  6.040000  5.632432  5.201878  5.338164 
dram[8]:  4.978355  4.939655  5.533019  5.904040  4.502326  4.456731  4.399061  4.509804  4.574879  4.776650  4.374408  4.400943  5.550802  6.011364  5.432836  5.445545 
dram[9]:  5.105263  5.069869  5.544186  5.818627  4.655340  4.660099  4.364486  4.446602  4.886598  5.069519  4.223744  4.199074  5.808743  6.022472  5.439024  5.514563 
dram[10]:  5.034782  4.914163  5.430555  5.440367  4.370370  4.345794  4.542453  4.740000  4.872449  4.912371  4.065217  4.120000  5.926966  6.130177  5.097222  5.613065 
average row locality = 181221/36543 = 4.959116
number of total memory accesses made:
dram[0]:         0         0         0         0         0         0         0         0         0         0         0         0         0         0         0         0 
dram[1]:         0         0         0         0         0         0         0         0         0         0         0         0         0         0         0         0 
dram[2]:         0         0         0         0         0         0         0         0         0         0         0         0         0         0         0         0 
dram[3]:         0         0         0         0         0         0         0         0         0         0         0         0         0         0         0         0 
dram[4]:         0         0         0         0         0         0         0         0         0         0         0         0         0         0         0         0 
dram[5]:         0         0         0         0         0         0         0         0         0         0         0         0         0         0         0         0 
dram[6]:         0         0         0         0         0         0         0         0         0         0         0         0         0         0         0         0 
dram[7]:         0         0         0         0         0         0         0         0         0         0         0         0         0         0         0         0 
dram[8]:         0         0         0         0         0         0         0         0         0         0         0         0         0         0         0         0 
dram[9]:         0         0         0         0         0         0         0         0         0         0         0         0         0         0         0         0 
dram[10]:         0         0         0         0         0         0         0         0         0         0         0         0         0         0         0         0 
total accesses: 0
min_bank_accesses = 0!
min_chip_accesses = 0!
number of total read accesses:
dram[0]:       453       452       456       456       435       435       432       432       432       432       434       434       448       448       448       448 
dram[1]:       452       452       456       456       435       435       432       432       432       432       435       435       448       448       448       448 
dram[2]:       452       452       456       456       435       435       432       432       432       432       435       435       448       448       448       448 
dram[3]:       452       452       455       455       435       435       432       432       432       432       435       435       448       448       448       448 
dram[4]:       452       452       455       455       435       435       432       432       432       432       435       435       448       447       449       449 
dram[5]:       452       452       455       455       435       435       432       432       432       432       435       435       447       447       449       449 
dram[6]:       452       452       455       455       435       435       432       432       432       432       435       435       447       447       449       449 
dram[7]:       453       453       455       455       435       435       432       432       432       432       435       435       447       447       448       448 
dram[8]:       453       453       455       455       435       435       432       432       432       432       435       435       448       448       448       448 
dram[9]:       453       453       455       455       435       435       432       432       432       432       435       435       448       448       448       448 
dram[10]:       453       453       455       455       434       434       432       432       432       432       435       435       448       448       448       448 
total reads: 77824
bank skew: 456/432 = 1.06
chip skew: 7076/7074 = 1.00
number of total write accesses:
dram[0]:       687       711       734       739       514       535       488       516       494       492       474       486       597       566       653       694 
dram[1]:       717       676       738       747       512       516       481       495       502       490       487       498       579       584       693       636 
dram[2]:       709       703       730       699       510       540       501       495       509       495       480       470       603       574       675       707 
dram[3]:       692       673       715       721       526       527       474       498       523       523       490       500       579       596       715       674 
dram[4]:       743       717       734       720       511       511       504       525       510       516       500       484       578       581       667       660 
dram[5]:       688       714       732       711       516       518       483       502       488       499       491       500       618       567       672       671 
dram[6]:       704       664       725       663       497       501       488       509       502       487       498       503       602       611       665       692 
dram[7]:       711       713       699       713       518       528       493       502       495       523       486       500       610       595       660       657 
dram[8]:       697       693       718       714       533       492       505       488       515       509       488       498       590       610       644       652 
dram[9]:       711       708       737       732       524       511       502       484       516       516       490       472       615       624       667       688 
dram[10]:       705       692       718       731       510       496       531       516       523       521       500       492       607       588       653       669 
total reads: 103397
bank skew: 747/470 = 1.59
chip skew: 9497/9311 = 1.02
average mf latency per bank:
dram[0]:       8513      8214      8050      8106      7466      7264      9151      8991     10348     10270      9253      9175      7640      8035      5830      5419
dram[1]:       8294      8653      8245      8304      7506      7410      9431      9264      9996     10188      9011      8833      7863      7680      5500      5799
dram[2]:       8511      8527      8221      8464      7354      7196      9207      9141     10083     10242      9039      9282      7213      7390      5603      5359
dram[3]:       8435      8616      8630      8592      7254      7284      9398      9188     10053      9881      9194      8901      7507      7423      5089      5386
dram[4]:       8145      8404      8602      8590      7513      7497      9145      8913     10022      9564      8875      8973      7542      7416      7324      7386
dram[5]:       8852      8599      8492      8631      7527      7451      9094      8994      9831      9706      9026      9072      7098      7522      7307      7306
dram[6]:       8735      9050      8512      9105      7660      7621      9156      9023      9551      9678      9058      8991      7318      7354      7449      7176
dram[7]:       8825      8764      8752      8523      7414      7369      9418      9194      9599      9366      8994      8923      7409      7588      7401      7443
dram[8]:       8780      8857      8472      8463      7241      7637      9196      9285      9444      9436      9145      8925      8156      7844      7534      7486
dram[9]:       8697      8772      8321      8226      7298      7394      9165      9454      9874      9748      9019      9140      7705      7609      7246      7223
dram[10]:       8773      8805      8332      7966      7449      7487      8864      8940      9703      9892      9121      9254      7730      7737      7451      6450
maximum mf latency per bank:
dram[0]:     123947    123985    123866    123834     63171     63198    123893    123459    123267    123240    124137    124190    123475    123492    123269    123264
dram[1]:     123933    124000    123863    123837     63186     63199    123449    123511    123221    123241    124146    124076    123491    123487    123231    123258
dram[2]:     123931    124029    123848    123882     63179     63198    123522    123524    123251    123292    124039    124078    123499    123504    123173    123219
dram[3]:     123958    124009    123838    123869     63172     63191    123519    123532    123278    123292    124045    124067    123500    123507    123143    123186
dram[4]:     123940    124022    123806    123844     63184     63205    123533    123565    123271    123316    124041    124051    123489    123494    126650    126565
dram[5]:     123990    124074    123777    123896     63179     63192    123478    123514    123260    123279    124011    124018    123500    123455    126604    126584
dram[6]:     123996    124081    123858    123898     63171     63197    123509    123513    123252    123282    123994    123990    123315    123323    126595    126565
dram[7]:     123993    124064    123866    123898     63173     63187    123896    123906    123283    123256    123964    123992    123341    123388    126481    126471
dram[8]:     123988    124064    123839    123890     63178     63189    123898    123925    123221    123225    123975    124001    123379    123359    126471    126414
dram[9]:     123961    124040    123879    123893     63188     63207    123895    123917    123223    123257    123977    123969    123368    123410    126374    126381
dram[10]:     123968    124021    123879    123887     63200     63217    123867    123935    123226    123241    124151    124196    123409    123446    126308    126236
Memory Partition 0: 
Cache L2_bank_000:
MSHR contents

Cache L2_bank_001:
MSHR contents

In Dram Latency Queue (total = 0): 
DRAM[0]: 16 bks, busW=4 BL=8 CL=12, tRRD=2 tCCD=6, tRCD=12 tRAS=28 tRP=12 tRC=40
n_cmd=2586705 n_nop=2528590 n_act=3315 n_pre=3299 n_req=16455 n_rd=28300 n_write=23201 bw_util=0.03982
n_activity=158810 dram_eff=0.6486
bk0: 1812a 2560066i bk1: 1808a 2557003i bk2: 1824a 2558357i bk3: 1824a 2557169i bk4: 1740a 2560898i bk5: 1740a 2559345i bk6: 1728a 2562452i bk7: 1728a 2562025i bk8: 1728a 2562534i bk9: 1728a 2560288i bk10: 1736a 2560395i bk11: 1736a 2559884i bk12: 1792a 2561384i bk13: 1792a 2560784i bk14: 1792a 2560643i bk15: 1792a 2558929i 
dram_util_bins: 0 0 0 0 0 0 0 0 0 0
dram_eff_bins: 0 0 0 0 0 0 0 0 0 0
mrqq: max=64 avg=0.76647
Memory Partition 1: 
Cache L2_bank_002:
MSHR contents

Cache L2_bank_003:
MSHR contents

In Dram Latency Queue (total = 0): 
DRAM[1]: 16 bks, busW=4 BL=8 CL=12, tRRD=2 tCCD=6, tRCD=12 tRAS=28 tRP=12 tRC=40
n_cmd=2586705 n_nop=2528541 n_act=3340 n_pre=3324 n_req=16427 n_rd=28304 n_write=23196 bw_util=0.03982
n_activity=158235 dram_eff=0.6509
bk0: 1808a 2559341i bk1: 1808a 2558038i bk2: 1824a 2556741i bk3: 1824a 2555337i bk4: 1740a 2559404i bk5: 1740a 2557802i bk6: 1728a 2561331i bk7: 1728a 2560913i bk8: 1728a 2561661i bk9: 1728a 2560642i bk10: 1740a 2560671i bk11: 1740a 2560412i bk12: 1792a 2560557i bk13: 1792a 2558894i bk14: 1792a 2559795i bk15: 1792a 2558776i 
dram_util_bins: 0 0 0 0 0 0 0 0 0 0
dram_eff_bins: 0 0 0 0 0 0 0 0 0 0
mrqq: max=64 avg=0.774141
Memory Partition 2: 
Cache L2_bank_004:
MSHR contents

Cache L2_bank_005:
MSHR contents

In Dram Latency Queue (total = 0): 
DRAM[2]: 16 bks, busW=4 BL=8 CL=12, tRRD=2 tCCD=6, tRCD=12 tRAS=28 tRP=12 tRC=40
n_cmd=2586705 n_nop=2528627 n_act=3295 n_pre=3279 n_req=16476 n_rd=28304 n_write=23200 bw_util=0.03982
n_activity=157509 dram_eff=0.654
bk0: 1808a 2557840i bk1: 1808a 2556608i bk2: 1824a 2557451i bk3: 1824a 2556232i bk4: 1740a 2559797i bk5: 1740a 2558960i bk6: 1728a 2563032i bk7: 1728a 2560985i bk8: 1728a 2562093i bk9: 1728a 2561602i bk10: 1740a 2560842i bk11: 1740a 2559080i bk12: 1792a 2560788i bk13: 1792a 2559910i bk14: 1792a 2560199i bk15: 1792a 2558003i 
dram_util_bins: 0 0 0 0 0 0 0 0 0 0
dram_eff_bins: 0 0 0 0 0 0 0 0 0 0
mrqq: max=64 avg=0.763006
Memory Partition 3: 
Cache L2_bank_006:
MSHR contents

Cache L2_bank_007:
MSHR contents

In Dram Latency Queue (total = 0): 
DRAM[3]: 16 bks, busW=4 BL=8 CL=12, tRRD=2 tCCD=6, tRCD=12 tRAS=28 tRP=12 tRC=40
n_cmd=2586705 n_nop=2528562 n_act=3332 n_pre=3316 n_req=16500 n_rd=28296 n_write=23199 bw_util=0.03982
n_activity=157881 dram_eff=0.6523
bk0: 1808a 2559116i bk1: 1808a 2557939i bk2: 1820a 2557830i bk3: 1820a 2557338i bk4: 1740a 2558859i bk5: 1740a 2558490i bk6: 1728a 2562619i bk7: 1728a 2561142i bk8: 1728a 2562523i bk9: 1728a 2561235i bk10: 1740a 2561370i bk11: 1740a 2560860i bk12: 1792a 2560259i bk13: 1792a 2559204i bk14: 1792a 2559836i bk15: 1792a 2557922i 
dram_util_bins: 0 0 0 0 0 0 0 0 0 0
dram_eff_bins: 0 0 0 0 0 0 0 0 0 0
mrqq: max=64 avg=0.77917
Memory Partition 4: 
Cache L2_bank_008:
MSHR contents

Cache L2_bank_009:
MSHR contents

In Dram Latency Queue (total = 0): 
DRAM[4]: 16 bks, busW=4 BL=8 CL=12, tRRD=2 tCCD=6, tRCD=12 tRAS=28 tRP=12 tRC=40
n_cmd=2586705 n_nop=2528528 n_act=3322 n_pre=3306 n_req=16536 n_rd=28300 n_write=23249 bw_util=0.03986
n_activity=157771 dram_eff=0.6535
bk0: 1808a 2559602i bk1: 1808a 2558284i bk2: 1820a 2557831i bk3: 1820a 2556106i bk4: 1740a 2559776i bk5: 1740a 2559772i bk6: 1728a 2562371i bk7: 1728a 2561437i bk8: 1728a 2561159i bk9: 1728a 2560628i bk10: 1740a 2562582i bk11: 1740a 2560967i bk12: 1792a 2561697i bk13: 1788a 2560465i bk14: 1796a 2559488i bk15: 1796a 2558064i 
dram_util_bins: 0 0 0 0 0 0 0 0 0 0
dram_eff_bins: 0 0 0 0 0 0 0 0 0 0
mrqq: max=64 avg=0.778867
Memory Partition 5: 
Cache L2_bank_010:
MSHR contents

Cache L2_bank_011:
MSHR contents

In Dram Latency Queue (total = 0): 
DRAM[5]: 16 bks, busW=4 BL=8 CL=12, tRRD=2 tCCD=6, tRCD=12 tRAS=28 tRP=12 tRC=40
n_cmd=2586705 n_nop=2528595 n_act=3324 n_pre=3308 n_req=16444 n_rd=28296 n_write=23182 bw_util=0.0398
n_activity=157950 dram_eff=0.6518
bk0: 1808a 2558808i bk1: 1808a 2558461i bk2: 1820a 2558929i bk3: 1820a 2556489i bk4: 1740a 2560197i bk5: 1740a 2559170i bk6: 1728a 2560273i bk7: 1728a 2559993i bk8: 1728a 2561175i bk9: 1728a 2560118i bk10: 1740a 2561057i bk11: 1740a 2560494i bk12: 1788a 2563011i bk13: 1788a 2560725i bk14: 1796a 2558925i bk15: 1796a 2557590i 
dram_util_bins: 0 0 0 0 0 0 0 0 0 0
dram_eff_bins: 0 0 0 0 0 0 0 0 0 0
mrqq: max=64 avg=0.781955
Memory Partition 6: 
Cache L2_bank_012:
MSHR contents

Cache L2_bank_013:
MSHR contents

In Dram Latency Queue (total = 0): 
DRAM[6]: 16 bks, busW=4 BL=8 CL=12, tRRD=2 tCCD=6, tRCD=12 tRAS=28 tRP=12 tRC=40
n_cmd=2586705 n_nop=2528654 n_act=3306 n_pre=3290 n_req=16385 n_rd=28296 n_write=23159 bw_util=0.03978
n_activity=157598 dram_eff=0.653
bk0: 1808a 2560657i bk1: 1808a 2559220i bk2: 1820a 2558546i bk3: 1820a 2557420i bk4: 1740a 2560225i bk5: 1740a 2558965i bk6: 1728a 2561505i bk7: 1728a 2561119i bk8: 1728a 2561056i bk9: 1728a 2560399i bk10: 1740a 2561535i bk11: 1740a 2560685i bk12: 1788a 2560844i bk13: 1788a 2560525i bk14: 1796a 2559813i bk15: 1796a 2557772i 
dram_util_bins: 0 0 0 0 0 0 0 0 0 0
dram_eff_bins: 0 0 0 0 0 0 0 0 0 0
mrqq: max=64 avg=0.783913
Memory Partition 7: 
Cache L2_bank_014:
MSHR contents

Cache L2_bank_015:
MSHR contents

In Dram Latency Queue (total = 0): 
DRAM[7]: 16 bks, busW=4 BL=8 CL=12, tRRD=2 tCCD=6, tRCD=12 tRAS=28 tRP=12 tRC=40
n_cmd=2586705 n_nop=2528483 n_act=3365 n_pre=3349 n_req=16477 n_rd=28296 n_write=23212 bw_util=0.03983
n_activity=158030 dram_eff=0.6519
bk0: 1812a 2559431i bk1: 1812a 2556923i bk2: 1820a 2557809i bk3: 1820a 2556282i bk4: 1740a 2559089i bk5: 1740a 2557954i bk6: 1728a 2560242i bk7: 1728a 2560659i bk8: 1728a 2561668i bk9: 1728a 2559981i bk10: 1740a 2561188i bk11: 1740a 2559998i bk12: 1788a 2561486i bk13: 1788a 2559654i bk14: 1792a 2558676i bk15: 1792a 2558660i 
dram_util_bins: 0 0 0 0 0 0 0 0 0 0
dram_eff_bins: 0 0 0 0 0 0 0 0 0 0
mrqq: max=64 avg=0.778142
Memory Partition 8: 
Cache L2_bank_016:
MSHR contents

Cache L2_bank_017:
MSHR contents

In Dram Latency Queue (total = 0): 
DRAM[8]: 16 bks, busW=4 BL=8 CL=12, tRRD=2 tCCD=6, tRCD=12 tRAS=28 tRP=12 tRC=40
n_cmd=2586705 n_nop=2528638 n_act=3306 n_pre=3290 n_req=16422 n_rd=28304 n_write=23167 bw_util=0.0398
n_activity=157694 dram_eff=0.6528
bk0: 1812a 2559949i bk1: 1812a 2558065i bk2: 1820a 2559079i bk3: 1820a 2557175i bk4: 1740a 2560903i bk5: 1740a 2559500i bk6: 1728a 2560798i bk7: 1728a 2559892i bk8: 1728a 2560775i bk9: 1728a 2559904i bk10: 1740a 2560856i bk11: 1740a 2559257i bk12: 1792a 2561907i bk13: 1792a 2559792i bk14: 1792a 2558303i bk15: 1792a 2557372i 
dram_util_bins: 0 0 0 0 0 0 0 0 0 0
dram_eff_bins: 0 0 0 0 0 0 0 0 0 0
mrqq: max=64 avg=0.77256
Memory Partition 9: 
Cache L2_bank_018:
MSHR contents

Cache L2_bank_019:
MSHR contents

In Dram Latency Queue (total = 0): 
DRAM[9]: 16 bks, busW=4 BL=8 CL=12, tRRD=2 tCCD=6, tRCD=12 tRAS=28 tRP=12 tRC=40
n_cmd=2586705 n_nop=2528558 n_act=3293 n_pre=3277 n_req=16573 n_rd=28304 n_write=23273 bw_util=0.03988
n_activity=158347 dram_eff=0.6514
bk0: 1812a 2559644i bk1: 1812a 2558250i bk2: 1820a 2556715i bk3: 1820a 2555985i bk4: 1740a 2558919i bk5: 1740a 2558469i bk6: 1728a 2562892i bk7: 1728a 2560402i bk8: 1728a 2562170i bk9: 1728a 2561004i bk10: 1740a 2560739i bk11: 1740a 2559684i bk12: 1792a 2560064i bk13: 1792a 2558685i bk14: 1792a 2559878i bk15: 1792a 2557337i 
dram_util_bins: 0 0 0 0 0 0 0 0 0 0
dram_eff_bins: 0 0 0 0 0 0 0 0 0 0
mrqq: max=64 avg=0.772967
Memory Partition 10: 
Cache L2_bank_020:
MSHR contents

Cache L2_bank_021:
MSHR contents

In Dram Latency Queue (total = 0): 
DRAM[10]: 16 bks, busW=4 BL=8 CL=12, tRRD=2 tCCD=6, tRCD=12 tRAS=28 tRP=12 tRC=40
n_cmd=2586705 n_nop=2528523 n_act=3346 n_pre=3330 n_req=16526 n_rd=28296 n_write=23210 bw_util=0.03982
n_activity=158101 dram_eff=0.6516
bk0: 1812a 2559646i bk1: 1812a 2557674i bk2: 1820a 2557190i bk3: 1820a 2554882i bk4: 1736a 2559343i bk5: 1736a 2559093i bk6: 1728a 2561115i bk7: 1728a 2561522i bk8: 1728a 2563337i bk9: 1728a 2562053i bk10: 1740a 2560666i bk11: 1740a 2559992i bk12: 1792a 2559182i bk13: 1792a 2558957i bk14: 1792a 2558927i bk15: 1792a 2557776i 
dram_util_bins: 0 0 0 0 0 0 0 0 0 0
dram_eff_bins: 0 0 0 0 0 0 0 0 0 0
mrqq: max=64 avg=0.772632

========= L2 cache stats =========
L2_cache_bank[0]: Access = 18080, Miss = 3538, Miss_rate = 0.196, Pending_hits = 7521, Reservation_fails = 14
L2_cache_bank[1]: Access = 18054, Miss = 3537, Miss_rate = 0.196, Pending_hits = 7487, Reservation_fails = 14
L2_cache_bank[2]: Access = 18070, Miss = 3538, Miss_rate = 0.196, Pending_hits = 7583, Reservation_fails = 20
L2_cache_bank[3]: Access = 18071, Miss = 3538, Miss_rate = 0.196, Pending_hits = 7439, Reservation_fails = 15
L2_cache_bank[4]: Access = 18071, Miss = 3538, Miss_rate = 0.196, Pending_hits = 7593, Reservation_fails = 11
L2_cache_bank[5]: Access = 18063, Miss = 3538, Miss_rate = 0.196, Pending_hits = 7526, Reservation_fails = 13
L2_cache_bank[6]: Access = 18052, Miss = 3537, Miss_rate = 0.196, Pending_hits = 7537, Reservation_fails = 18
L2_cache_bank[7]: Access = 18052, Miss = 3537, Miss_rate = 0.196, Pending_hits = 7590, Reservation_fails = 12
L2_cache_bank[8]: Access = 18080, Miss = 3538, Miss_rate = 0.196, Pending_hits = 7650, Reservation_fails = 7
L2_cache_bank[9]: Access = 18078, Miss = 3537, Miss_rate = 0.196, Pending_hits = 7683, Reservation_fails = 11
L2_cache_bank[10]: Access = 18078, Miss = 3537, Miss_rate = 0.196, Pending_hits = 7582, Reservation_fails = 16
L2_cache_bank[11]: Access = 18076, Miss = 3537, Miss_rate = 0.196, Pending_hits = 7558, Reservation_fails = 11
L2_cache_bank[12]: Access = 18076, Miss = 3537, Miss_rate = 0.196, Pending_hits = 7542, Reservation_fails = 6
L2_cache_bank[13]: Access = 18078, Miss = 3537, Miss_rate = 0.196, Pending_hits = 7511, Reservation_fails = 11
L2_cache_bank[14]: Access = 18052, Miss = 3537, Miss_rate = 0.196, Pending_hits = 7497, Reservation_fails = 8
L2_cache_bank[15]: Access = 18054, Miss = 3537, Miss_rate = 0.196, Pending_hits = 7544, Reservation_fails = 14
L2_cache_bank[16]: Access = 18068, Miss = 3538, Miss_rate = 0.196, Pending_hits = 7552, Reservation_fails = 11
L2_cache_bank[17]: Access = 18068, Miss = 3538, Miss_rate = 0.196, Pending_hits = 7484, Reservation_fails = 15
L2_cache_bank[18]: Access = 18070, Miss = 3538, Miss_rate = 0.196, Pending_hits = 7633, Reservation_fails = 15
L2_cache_bank[19]: Access = 18062, Miss = 3538, Miss_rate = 0.196, Pending_hits = 7553, Reservation_fails = 10
L2_cache_bank[20]: Access = 18054, Miss = 3537, Miss_rate = 0.196, Pending_hits = 7658, Reservation_fails = 9
L2_cache_bank[21]: Access = 18052, Miss = 3537, Miss_rate = 0.196, Pending_hits = 7505, Reservation_fails = 10
L2_total_cache_accesses = 397459
L2_total_cache_misses = 77824
L2_total_cache_miss_rate = 0.1958
L2_total_cache_pending_hits = 166228
L2_total_cache_reservation_fails = 271
L2_total_cache_breakdown:
	L2_cache_stats_breakdown[GLOBAL_ACC_R][HIT] = 9573
	L2_cache_stats_breakdown[GLOBAL_ACC_R][HIT_RESERVED] = 117385
	L2_cache_stats_breakdown[GLOBAL_ACC_R][MISS] = 73721
	L2_cache_stats_breakdown[GLOBAL_ACC_R][RESERVATION_FAIL] = 0
	L2_cache_stats_breakdown[LOCAL_ACC_R][HIT] = 0
	L2_cache_stats_breakdown[LOCAL_ACC_R][HIT_RESERVED] = 0
	L2_cache_stats_breakdown[LOCAL_ACC_R][MISS] = 0
	L2_cache_stats_breakdown[LOCAL_ACC_R][RESERVATION_FAIL] = 0
	L2_cache_stats_breakdown[CONST_ACC_R][HIT] = 0
	L2_cache_stats_breakdown[CONST_ACC_R][HIT_RESERVED] = 27
	L2_cache_stats_breakdown[CONST_ACC_R][MISS] = 1
	L2_cache_stats_breakdown[CONST_ACC_R][RESERVATION_FAIL] = 0
	L2_cache_stats_breakdown[TEXTURE_ACC_R][HIT] = 0
	L2_cache_stats_breakdown[TEXTURE_ACC_R][HIT_RESERVED] = 0
[...]
F: 14619171----T: 14619371 	 St: c11cd780 Sz: 128 	 Sm: 0 	 T: dma(0.135044)
F: 14619371----T: 14619571 	 St: c11ce860 Sz: 32 	 Sm: 0 	 T: dma(0.135044)
F: 14619571----T: 14619771 	 St: c11ce880 Sz: 128 	 Sm: 0 	 T: dma(0.135044)
F: 14619771----T: 14619971 	 St: c11ce400 Sz: 128 	 Sm: 0 	 T: dma(0.135044)
F: 14619971----T: 14620171 	 St: c11ce480 Sz: 64 	 Sm: 0 	 T: dma(0.135044)
F: 14620171----T: 14620371 	 St: c11cec80 Sz: 128 	 Sm: 0 	 T: dma(0.135044)
F: 14620371----T: 14620571 	 St: c11ced00 Sz: 64 	 Sm: 0 	 T: dma(0.135044)
F: 14620571----T: 14620771 	 St: c11cf960 Sz: 32 	 Sm: 0 	 T: dma(0.135044)
F: 14620771----T: 14620971 	 St: c11cf980 Sz: 128 	 Sm: 0 	 T: dma(0.135044)
F: 14620971----T: 14621171 	 St: c11cf300 Sz: 128 	 Sm: 0 	 T: dma(0.135044)
F: 14621171----T: 14621371 	 St: c11cf380 Sz: 32 	 Sm: 0 	 T: dma(0.135044)
F: 14621371----T: 14621571 	 St: c11cf400 Sz: 128 	 Sm: 0 	 T: dma(0.135044)
F: 14621571----T: 14621771 	 St: c11cf480 Sz: 32 	 Sm: 0 	 T: dma(0.135044)
F: 14621771----T: 14621971 	 St: c11ca980 Sz: 128 	 Sm: 0 	 T: dma(0.135044)
F: 14621971----T: 14622171 	 St: c11caa00 Sz: 64 	 Sm: 0 	 T: dma(0.135044)
F: 14622171----T: 14622371 	 St: c11ca560 Sz: 32 	 Sm: 0 	 T: dma(0.135044)
F: 14622371----T: 14622571 	 St: c11ca580 Sz: 128 	 Sm: 0 	 T: dma(0.135044)
F: 14622571----T: 14622771 	 St: c11cb660 Sz: 32 	 Sm: 0 	 T: dma(0.135044)
F: 14622771----T: 14622971 	 St: c11cb680 Sz: 128 	 Sm: 0 	 T: dma(0.135044)
F: 14622971----T: 14623171 	 St: c11cbee0 Sz: 32 	 Sm: 0 	 T: dma(0.135044)
F: 14623171----T: 14623371 	 St: c11cbf00 Sz: 128 	 Sm: 0 	 T: dma(0.135044)
F: 14623371----T: 14623571 	 St: c11cba80 Sz: 128 	 Sm: 0 	 T: dma(0.135044)
F: 14623571----T: 14623771 	 St: c11cbb00 Sz: 64 	 Sm: 0 	 T: dma(0.135044)
F: 14623771----T: 14623971 	 St: c11cc300 Sz: 128 	 Sm: 0 	 T: dma(0.135044)
F: 14623971----T: 14624171 	 St: c11cc380 Sz: 64 	 Sm: 0 	 T: dma(0.135044)
F: 14624171----T: 14624371 	 St: c11cc760 Sz: 32 	 Sm: 0 	 T: dma(0.135044)
F: 14624371----T: 14624571 	 St: c11cc780 Sz: 128 	 Sm: 0 	 T: dma(0.135044)
F: 14624571----T: 14624771 	 St: c11ccb80 Sz: 128 	 Sm: 0 	 T: dma(0.135044)
F: 14624771----T: 14624971 	 St: c11ccc00 Sz: 64 	 Sm: 0 	 T: dma(0.135044)
F: 14624971----T: 14625171 	 St: c11ccfe0 Sz: 32 	 Sm: 0 	 T: dma(0.135044)
F: 14625171----T: 14625371 	 St: c11cd000 Sz: 128 	 Sm: 0 	 T: dma(0.135044)
F: 14625371----T: 14625571 	 St: c11cd400 Sz: 128 	 Sm: 0 	 T: dma(0.135044)
F: 14625571----T: 14625771 	 St: c11cd480 Sz: 64 	 Sm: 0 	 T: dma(0.135044)
F: 14625771----T: 14625971 	 St: c11cd860 Sz: 32 	 Sm: 0 	 T: dma(0.135044)
F: 14625971----T: 14626171 	 St: c11cd880 Sz: 128 	 Sm: 0 	 T: dma(0.135044)
F: 14626171----T: 14626371 	 St: c11cdc80 Sz: 128 	 Sm: 0 	 T: dma(0.135044)
F: 14626371----T: 14626571 	 St: c11cdd00 Sz: 64 	 Sm: 0 	 T: dma(0.135044)
F: 14626571----T: 14626771 	 St: c11ce0e0 Sz: 32 	 Sm: 0 	 T: dma(0.135044)
F: 14626771----T: 14626971 	 St: c11ce100 Sz: 128 	 Sm: 0 	 T: dma(0.135044)
F: 14626971----T: 14627171 	 St: c11ce500 Sz: 128 	 Sm: 0 	 T: dma(0.135044)
F: 14627171----T: 14627371 	 St: c11ce580 Sz: 64 	 Sm: 0 	 T: dma(0.135044)
F: 14627371----T: 14627571 	 St: c11ce960 Sz: 32 	 Sm: 0 	 T: dma(0.135044)
F: 14627571----T: 14627771 	 St: c11ce980 Sz: 128 	 Sm: 0 	 T: dma(0.135044)
F: 14627771----T: 14627971 	 St: c11ced80 Sz: 128 	 Sm: 0 	 T: dma(0.135044)
F: 14627971----T: 14628171 	 St: c11cee00 Sz: 64 	 Sm: 0 	 T: dma(0.135044)
F: 14628171----T: 14628371 	 St: c11c7ae0 Sz: 32 	 Sm: 0 	 T: dma(0.135044)
F: 14628371----T: 14628571 	 St: c11c7b00 Sz: 128 	 Sm: 0 	 T: dma(0.135044)
F: 14628571----T: 14628771 	 St: c11cf680 Sz: 128 	 Sm: 0 	 T: dma(0.135044)
F: 14628771----T: 14628971 	 St: c11cf700 Sz: 64 	 Sm: 0 	 T: dma(0.135044)
F: 14628971----T: 14629171 	 St: c11cfa60 Sz: 32 	 Sm: 0 	 T: dma(0.135044)
F: 14629171----T: 14629371 	 St: c11cfa80 Sz: 128 	 Sm: 0 	 T: dma(0.135044)
F: 14629371----T: 14629571 	 St: c11ca680 Sz: 128 	 Sm: 0 	 T: dma(0.135044)
F: 14629571----T: 14629771 	 St: c11ca700 Sz: 32 	 Sm: 0 	 T: dma(0.135044)
F: 14629771----T: 14629971 	 St: c11bf040 Sz: 64 	 Sm: 0 	 T: dma(0.135044)
F: 14629971----T: 14630171 	 St: c11bf080 Sz: 128 	 Sm: 0 	 T: dma(0.135044)
F: 14630171----T: 14630371 	 St: c11bf480 Sz: 128 	 Sm: 0 	 T: dma(0.135044)
F: 14630371----T: 14630571 	 St: c11bf500 Sz: 32 	 Sm: 0 	 T: dma(0.135044)
F: 14630571----T: 14630771 	 St: c11bf140 Sz: 64 	 Sm: 0 	 T: dma(0.135044)
F: 14630771----T: 14630971 	 St: c11bf180 Sz: 128 	 Sm: 0 	 T: dma(0.135044)
F: 14630971----T: 14631171 	 St: c11cb780 Sz: 128 	 Sm: 0 	 T: dma(0.135044)
F: 14631171----T: 14631371 	 St: c11cb800 Sz: 32 	 Sm: 0 	 T: dma(0.135044)
F: 14631371----T: 14631571 	 St: c11bf580 Sz: 128 	 Sm: 0 	 T: dma(0.135044)
F: 14631571----T: 14631771 	 St: c11bf600 Sz: 32 	 Sm: 0 	 T: dma(0.135044)
F: 14631771----T: 14631971 	 St: c11bf260 Sz: 32 	 Sm: 0 	 T: dma(0.135044)
F: 14631971----T: 14632171 	 St: c11bf280 Sz: 128 	 Sm: 0 	 T: dma(0.135044)
F: 14632171----T: 14632371 	 St: c11bf680 Sz: 128 	 Sm: 0 	 T: dma(0.135044)
F: 14632371----T: 14632571 	 St: c11bf700 Sz: 64 	 Sm: 0 	 T: dma(0.135044)
F: 14632571----T: 14632771 	 St: c11cbbc0 Sz: 64 	 Sm: 0 	 T: dma(0.135044)
F: 14632771----T: 14632971 	 St: c11cbc00 Sz: 128 	 Sm: 0 	 T: dma(0.135044)
F: 14632971----T: 14633171 	 St: c11bf360 Sz: 32 	 Sm: 0 	 T: dma(0.135044)
F: 14633171----T: 14633371 	 St: c11bf380 Sz: 128 	 Sm: 0 	 T: dma(0.135044)
F: 14633371----T: 14633571 	 St: c11bf780 Sz: 128 	 Sm: 0 	 T: dma(0.135044)
F: 14633571----T: 14633771 	 St: c11bf800 Sz: 64 	 Sm: 0 	 T: dma(0.135044)
F: 14633771----T: 14633971 	 St: c11befc0 Sz: 64 	 Sm: 0 	 T: dma(0.135044)
F: 14633971----T: 14634171 	 St: c11bf000 Sz: 128 	 Sm: 0 	 T: dma(0.135044)
F: 14634171----T: 14634371 	 St: c11cc000 Sz: 128 	 Sm: 0 	 T: dma(0.135044)
F: 14634371----T: 14634571 	 St: c11cc080 Sz: 32 	 Sm: 0 	 T: dma(0.135044)
F: 14634571----T: 14634771 	 St: c11bf1e0 Sz: 32 	 Sm: 0 	 T: dma(0.135044)
F: 14634771----T: 14634971 	 St: c11bf200 Sz: 128 	 Sm: 0 	 T: dma(0.135044)
F: 14634971----T: 14635171 	 St: c11bf500 Sz: 128 	 Sm: 0 	 T: dma(0.135044)
F: 14635171----T: 14635371 	 St: c11bf580 Sz: 32 	 Sm: 0 	 T: dma(0.135044)
F: 14635371----T: 14635571 	 St: c11cc440 Sz: 64 	 Sm: 0 	 T: dma(0.135044)
F: 14635571----T: 14635771 	 St: c11cc480 Sz: 128 	 Sm: 0 	 T: dma(0.135044)
F: 14635771----T: 14635971 	 St: c11bf0c0 Sz: 64 	 Sm: 0 	 T: dma(0.135044)
F: 14635971----T: 14636171 	 St: c11bf100 Sz: 128 	 Sm: 0 	 T: dma(0.135044)
F: 14636171----T: 14636371 	 St: c11bf600 Sz: 128 	 Sm: 0 	 T: dma(0.135044)
F: 14636371----T: 14636571 	 St: c11bf680 Sz: 64 	 Sm: 0 	 T: dma(0.135044)
F: 14636571----T: 14636771 	 St: c11cc880 Sz: 128 	 Sm: 0 	 T: dma(0.135044)
F: 14636771----T: 14636971 	 St: c11cc900 Sz: 32 	 Sm: 0 	 T: dma(0.135044)
F: 14636971----T: 14637171 	 St: c11bf2e0 Sz: 32 	 Sm: 0 	 T: dma(0.135044)
F: 14637171----T: 14637371 	 St: c11bf300 Sz: 128 	 Sm: 0 	 T: dma(0.135044)
F: 14637371----T: 14637571 	 St: c11bf700 Sz: 128 	 Sm: 0 	 T: dma(0.135044)
F: 14637571----T: 14637771 	 St: c11bf780 Sz: 64 	 Sm: 0 	 T: dma(0.135044)
F: 14637771----T: 14637971 	 St: c11cccc0 Sz: 64 	 Sm: 0 	 T: dma(0.135044)
F: 14637971----T: 14638171 	 St: c11ccd00 Sz: 128 	 Sm: 0 	 T: dma(0.135044)
F: 14638171----T: 14638371 	 St: c11bf400 Sz: 128 	 Sm: 0 	 T: dma(0.135044)
F: 14638371----T: 14638571 	 St: c11bf480 Sz: 32 	 Sm: 0 	 T: dma(0.135044)
F: 14638571----T: 14638771 	 St: c11bf840 Sz: 64 	 Sm: 0 	 T: dma(0.135044)
F: 14638771----T: 14638971 	 St: c11bf880 Sz: 128 	 Sm: 0 	 T: dma(0.135044)
F: 14638971----T: 14639171 	 St: c11cd100 Sz: 128 	 Sm: 0 	 T: dma(0.135044)
F: 14639171----T: 14639371 	 St: c11cd180 Sz: 32 	 Sm: 0 	 T: dma(0.135044)
F: 14639371----T: 14639571 	 St: c11cab40 Sz: 64 	 Sm: 0 	 T: dma(0.135044)
F: 14639571----T: 14639771 	 St: c11cab80 Sz: 128 	 Sm: 0 	 T: dma(0.135044)
F: 14639771----T: 14639971 	 St: c11cd540 Sz: 64 	 Sm: 0 	 T: dma(0.135044)
F: 14639971----T: 14640171 	 St: c11cd580 Sz: 128 	 Sm: 0 	 T: dma(0.135044)
F: 14640171----T: 14640371 	 St: c11cac40 Sz: 64 	 Sm: 0 	 T: dma(0.135044)
F: 14640371----T: 14640571 	 St: c11cac80 Sz: 128 	 Sm: 0 	 T: dma(0.135044)
F: 14640571----T: 14640771 	 St: c11caf80 Sz: 128 	 Sm: 0 	 T: dma(0.135044)
F: 14640771----T: 14640971 	 St: c11cb000 Sz: 32 	 Sm: 0 	 T: dma(0.135044)
F: 14640971----T: 14641171 	 St: c11cd980 Sz: 128 	 Sm: 0 	 T: dma(0.135044)
F: 14641171----T: 14641371 	 St: c11cda00 Sz: 32 	 Sm: 0 	 T: dma(0.135044)
F: 14641371----T: 14641571 	 St: c11cad60 Sz: 32 	 Sm: 0 	 T: dma(0.135044)
F: 14641571----T: 14641771 	 St: c11cad80 Sz: 128 	 Sm: 0 	 T: dma(0.135044)
F: 14641771----T: 14641971 	 St: c11cb180 Sz: 128 	 Sm: 0 	 T: dma(0.135044)
F: 14641971----T: 14642171 	 St: c11cb200 Sz: 64 	 Sm: 0 	 T: dma(0.135044)
F: 14642171----T: 14642371 	 St: c11cae60 Sz: 32 	 Sm: 0 	 T: dma(0.135044)
F: 14642371----T: 14642571 	 St: c11cae80 Sz: 128 	 Sm: 0 	 T: dma(0.135044)
F: 14642571----T: 14642771 	 St: c11cb080 Sz: 128 	 Sm: 0 	 T: dma(0.135044)
F: 14642771----T: 14642971 	 St: c11cb100 Sz: 32 	 Sm: 0 	 T: dma(0.135044)
F: 14642971----T: 14643171 	 St: c11cddc0 Sz: 64 	 Sm: 0 	 T: dma(0.135044)
F: 14643171----T: 14643371 	 St: c11cde00 Sz: 128 	 Sm: 0 	 T: dma(0.135044)
F: 14643371----T: 14643571 	 St: c11cb280 Sz: 128 	 Sm: 0 	 T: dma(0.135044)
F: 14643571----T: 14643771 	 St: c11cb300 Sz: 64 	 Sm: 0 	 T: dma(0.135044)
F: 14643771----T: 14643971 	 St: c11cabc0 Sz: 64 	 Sm: 0 	 T: dma(0.135044)
F: 14643971----T: 14644171 	 St: c11cac00 Sz: 128 	 Sm: 0 	 T: dma(0.135044)
F: 14644171----T: 14644371 	 St: c11cb000 Sz: 128 	 Sm: 0 	 T: dma(0.135044)
F: 14644371----T: 14644571 	 St: c11cb080 Sz: 32 	 Sm: 0 	 T: dma(0.135044)
F: 14644571----T: 14644771 	 St: c11cea80 Sz: 128 	 Sm: 0 	 T: dma(0.135044)
F: 14644771----T: 14644971 	 St: c11ceb00 Sz: 32 	 Sm: 0 	 T: dma(0.135044)
F: 14644971----T: 14645171 	 St: c11cace0 Sz: 32 	 Sm: 0 	 T: dma(0.135044)
F: 14645171----T: 14645371 	 St: c11cad00 Sz: 128 	 Sm: 0 	 T: dma(0.135044)
F: 14645371----T: 14645571 	 St: c11cb100 Sz: 128 	 Sm: 0 	 T: dma(0.135044)
F: 14645571----T: 14645771 	 St: c11cb180 Sz: 64 	 Sm: 0 	 T: dma(0.135044)
F: 14645771----T: 14645971 	 St: c11ceec0 Sz: 64 	 Sm: 0 	 T: dma(0.135044)
F: 14645971----T: 14646171 	 St: c11cef00 Sz: 128 	 Sm: 0 	 T: dma(0.135044)
F: 14646171----T: 14646371 	 St: c11cade0 Sz: 32 	 Sm: 0 	 T: dma(0.135044)
F: 14646371----T: 14646571 	 St: c11cae00 Sz: 128 	 Sm: 0 	 T: dma(0.135044)
F: 14646571----T: 14646771 	 St: c11cb200 Sz: 128 	 Sm: 0 	 T: dma(0.135044)
F: 14646771----T: 14646971 	 St: c11cb280 Sz: 64 	 Sm: 0 	 T: dma(0.135044)
F: 14646971----T: 14647171 	 St: c11cf600 Sz: 128 	 Sm: 0 	 T: dma(0.135044)
F: 14647171----T: 14647371 	 St: c11cf680 Sz: 64 	 Sm: 0 	 T: dma(0.135044)
F: 14647371----T: 14647571 	 St: c11caac0 Sz: 64 	 Sm: 0 	 T: dma(0.135044)
F: 14647571----T: 14647771 	 St: c11cab00 Sz: 128 	 Sm: 0 	 T: dma(0.135044)
F: 14647771----T: 14647971 	 St: c11caf00 Sz: 128 	 Sm: 0 	 T: dma(0.135044)
F: 14647971----T: 14648171 	 St: c11caf80 Sz: 32 	 Sm: 0 	 T: dma(0.135044)
F: 14648171----T: 14648371 	 St: c11cfb80 Sz: 128 	 Sm: 0 	 T: dma(0.135044)
F: 14648371----T: 14648571 	 St: c11cfc00 Sz: 32 	 Sm: 0 	 T: dma(0.135044)
F: 14648571----T: 14648771 	 St: c11cb340 Sz: 64 	 Sm: 0 	 T: dma(0.135044)
F: 14648771----T: 14648971 	 St: c11cb380 Sz: 128 	 Sm: 0 	 T: dma(0.135044)
F: 14648971----T: 14649171 	 St: c11cf740 Sz: 64 	 Sm: 0 	 T: dma(0.135044)
F: 14649171----T: 14649371 	 St: c11cf780 Sz: 128 	 Sm: 0 	 T: dma(0.135044)
F: 14649371----T: 14649571 	 St: c11ce200 Sz: 128 	 Sm: 0 	 T: dma(0.135044)
F: 14649571----T: 14649771 	 St: c11ce280 Sz: 32 	 Sm: 0 	 T: dma(0.135044)
F: 14649771----T: 14649971 	 St: c11ce640 Sz: 64 	 Sm: 0 	 T: dma(0.135044)
F: 14649971----T: 14650171 	 St: c11ce680 Sz: 128 	 Sm: 0 	 T: dma(0.135044)
F: 14650940----T: 14653545 	 St: 0 Sz: 4096 	 Sm: 0 	 T: device_sync(1.758947)
F: 14650940----T: 14659180 	 St: 0 Sz: 61440 	 Sm: 0 	 T: device_sync(5.563808)
F: 14661785----T: 14664390 	 St: 0 Sz: 4096 	 Sm: 0 	 T: device_sync(1.758947)
F: 14661785----T: 14670025 	 St: 0 Sz: 61440 	 Sm: 0 	 T: device_sync(5.563808)
F: 14672630----T: 14675235 	 St: 0 Sz: 4096 	 Sm: 0 	 T: device_sync(1.758947)
F: 14672630----T: 14688325 	 St: 0 Sz: 126976 	 Sm: 0 	 T: device_sync(10.597569)
F: 14690930----T: 14693535 	 St: 0 Sz: 4096 	 Sm: 0 	 T: device_sync(1.758947)
F: 14690930----T: 14721653 	 St: 0 Sz: 258048 	 Sm: 0 	 T: device_sync(20.744766)
F: 14724258----T: 14726863 	 St: 0 Sz: 4096 	 Sm: 0 	 T: device_sync(1.758947)
F: 14724258----T: 14785094 	 St: 0 Sz: 520192 	 Sm: 0 	 T: device_sync(41.077652)
F: 14787699----T: 14790304 	 St: 0 Sz: 4096 	 Sm: 0 	 T: device_sync(1.758947)
F: 14787699----T: 14908788 	 St: 0 Sz: 1044480 	 Sm: 0 	 T: device_sync(81.761650)
F: 14911393----T: 14913998 	 St: 0 Sz: 4096 	 Sm: 0 	 T: device_sync(1.758947)
F: 14911393----T: 14919633 	 St: 0 Sz: 61440 	 Sm: 0 	 T: device_sync(5.563808)
F: 14922238----T: 14924843 	 St: 0 Sz: 4096 	 Sm: 0 	 T: device_sync(1.758947)
F: 14922238----T: 14930478 	 St: 0 Sz: 61440 	 Sm: 0 	 T: device_sync(5.563808)
F: 14933083----T: 14935688 	 St: 0 Sz: 4096 	 Sm: 0 	 T: device_sync(1.758947)
F: 14933083----T: 14948778 	 St: 0 Sz: 126976 	 Sm: 0 	 T: device_sync(10.597569)
F: 14951383----T: 14953988 	 St: 0 Sz: 4096 	 Sm: 0 	 T: device_sync(1.758947)
F: 14951383----T: 14982106 	 St: 0 Sz: 258048 	 Sm: 0 	 T: device_sync(20.744766)
F: 14984711----T: 14987316 	 St: 0 Sz: 4096 	 Sm: 0 	 T: device_sync(1.758947)
F: 14984711----T: 15045547 	 St: 0 Sz: 520192 	 Sm: 0 	 T: device_sync(41.077652)
F: 15048152----T: 15050757 	 St: 0 Sz: 4096 	 Sm: 0 	 T: device_sync(1.758947)
F: 15048152----T: 15169241 	 St: 0 Sz: 1044480 	 Sm: 0 	 T: device_sync(81.761650)
F: 15171846----T: 15174451 	 St: 0 Sz: 4096 	 Sm: 0 	 T: device_sync(1.758947)
F: 15171846----T: 15180086 	 St: 0 Sz: 61440 	 Sm: 0 	 T: device_sync(5.563808)
F: 15182691----T: 15185296 	 St: 0 Sz: 4096 	 Sm: 0 	 T: device_sync(1.758947)
F: 15182691----T: 15190931 	 St: 0 Sz: 61440 	 Sm: 0 	 T: device_sync(5.563808)
F: 15193536----T: 15196141 	 St: 0 Sz: 4096 	 Sm: 0 	 T: device_sync(1.758947)
F: 15193536----T: 15209231 	 St: 0 Sz: 126976 	 Sm: 0 	 T: device_sync(10.597569)
F: 15211836----T: 15214441 	 St: 0 Sz: 4096 	 Sm: 0 	 T: device_sync(1.758947)
F: 15211836----T: 15242559 	 St: 0 Sz: 258048 	 Sm: 0 	 T: device_sync(20.744766)
F: 15245164----T: 15247769 	 St: 0 Sz: 4096 	 Sm: 0 	 T: device_sync(1.758947)
F: 15245164----T: 15306000 	 St: 0 Sz: 520192 	 Sm: 0 	 T: device_sync(41.077652)
F: 15308605----T: 15311210 	 St: 0 Sz: 4096 	 Sm: 0 	 T: device_sync(1.758947)
F: 15308605----T: 15429694 	 St: 0 Sz: 1044480 	 Sm: 0 	 T: device_sync(81.761650)
F: 15432299----T: 15434904 	 St: 0 Sz: 4096 	 Sm: 0 	 T: device_sync(1.758947)
F: 15432299----T: 15440539 	 St: 0 Sz: 61440 	 Sm: 0 	 T: device_sync(5.563808)
F: 15443144----T: 15445749 	 St: 0 Sz: 4096 	 Sm: 0 	 T: device_sync(1.758947)
F: 15443144----T: 15451384 	 St: 0 Sz: 61440 	 Sm: 0 	 T: device_sync(5.563808)
F: 15453989----T: 15456594 	 St: 0 Sz: 4096 	 Sm: 0 	 T: device_sync(1.758947)
F: 15453989----T: 15469684 	 St: 0 Sz: 126976 	 Sm: 0 	 T: device_sync(10.597569)
F: 15472289----T: 15474894 	 St: 0 Sz: 4096 	 Sm: 0 	 T: device_sync(1.758947)
F: 15472289----T: 15503012 	 St: 0 Sz: 258048 	 Sm: 0 	 T: device_sync(20.744766)
F: 15505617----T: 15508222 	 St: 0 Sz: 4096 	 Sm: 0 	 T: device_sync(1.758947)
F: 15505617----T: 15566453 	 St: 0 Sz: 520192 	 Sm: 0 	 T: device_sync(41.077652)
F: 15569058----T: 15571663 	 St: 0 Sz: 4096 	 Sm: 0 	 T: device_sync(1.758947)
F: 15569058----T: 15690147 	 St: 0 Sz: 1044480 	 Sm: 0 	 T: device_sync(81.761650)
F: 15692752----T: 15695357 	 St: 0 Sz: 4096 	 Sm: 0 	 T: device_sync(1.758947)
F: 15692752----T: 15700992 	 St: 0 Sz: 61440 	 Sm: 0 	 T: device_sync(5.563808)
F: 15703597----T: 15706202 	 St: 0 Sz: 4096 	 Sm: 0 	 T: device_sync(1.758947)
F: 15703597----T: 15711837 	 St: 0 Sz: 61440 	 Sm: 0 	 T: device_sync(5.563808)
F: 15714442----T: 15717047 	 St: 0 Sz: 4096 	 Sm: 0 	 T: device_sync(1.758947)
F: 15714442----T: 15730137 	 St: 0 Sz: 126976 	 Sm: 0 	 T: device_sync(10.597569)
F: 15732742----T: 15735347 	 St: 0 Sz: 4096 	 Sm: 0 	 T: device_sync(1.758947)
F: 15732742----T: 15763465 	 St: 0 Sz: 258048 	 Sm: 0 	 T: device_sync(20.744766)
F: 15766070----T: 15768675 	 St: 0 Sz: 4096 	 Sm: 0 	 T: device_sync(1.758947)
F: 15766070----T: 15826906 	 St: 0 Sz: 520192 	 Sm: 0 	 T: device_sync(41.077652)
F: 15829511----T: 15832116 	 St: 0 Sz: 4096 	 Sm: 0 	 T: device_sync(1.758947)
F: 15829511----T: 15950600 	 St: 0 Sz: 1044480 	 Sm: 0 	 T: device_sync(81.761650)
F: 15953205----T: 15955810 	 St: 0 Sz: 4096 	 Sm: 0 	 T: device_sync(1.758947)
F: 15953205----T: 15961445 	 St: 0 Sz: 61440 	 Sm: 0 	 T: device_sync(5.563808)
F: 15964050----T: 15966655 	 St: 0 Sz: 4096 	 Sm: 0 	 T: device_sync(1.758947)
F: 15964050----T: 15972290 	 St: 0 Sz: 61440 	 Sm: 0 	 T: device_sync(5.563808)
F: 15974895----T: 15977500 	 St: 0 Sz: 4096 	 Sm: 0 	 T: device_sync(1.758947)
F: 15974895----T: 15990590 	 St: 0 Sz: 126976 	 Sm: 0 	 T: device_sync(10.597569)
F: 15993195----T: 15995800 	 St: 0 Sz: 4096 	 Sm: 0 	 T: device_sync(1.758947)
F: 15993195----T: 16023918 	 St: 0 Sz: 258048 	 Sm: 0 	 T: device_sync(20.744766)
F: 16026523----T: 16029128 	 St: 0 Sz: 4096 	 Sm: 0 	 T: device_sync(1.758947)
F: 16026523----T: 16087359 	 St: 0 Sz: 520192 	 Sm: 0 	 T: device_sync(41.077652)
F: 16089964----T: 16092569 	 St: 0 Sz: 4096 	 Sm: 0 	 T: device_sync(1.758947)
F: 16089964----T: 16211053 	 St: 0 Sz: 1044480 	 Sm: 0 	 T: device_sync(81.761650)
F: 16213658----T: 16216263 	 St: 0 Sz: 4096 	 Sm: 0 	 T: device_sync(1.758947)
F: 16213658----T: 16221898 	 St: 0 Sz: 61440 	 Sm: 0 	 T: device_sync(5.563808)
F: 16224503----T: 16227108 	 St: 0 Sz: 4096 	 Sm: 0 	 T: device_sync(1.758947)
F: 16224503----T: 16232743 	 St: 0 Sz: 61440 	 Sm: 0 	 T: device_sync(5.563808)
F: 16235348----T: 16237953 	 St: 0 Sz: 4096 	 Sm: 0 	 T: device_sync(1.758947)
F: 16235348----T: 16251043 	 St: 0 Sz: 126976 	 Sm: 0 	 T: device_sync(10.597569)
F: 16253648----T: 16256253 	 St: 0 Sz: 4096 	 Sm: 0 	 T: device_sync(1.758947)
F: 16253648----T: 16284371 	 St: 0 Sz: 258048 	 Sm: 0 	 T: device_sync(20.744766)
F: 16286976----T: 16289581 	 St: 0 Sz: 4096 	 Sm: 0 	 T: device_sync(1.758947)
F: 16286976----T: 16347812 	 St: 0 Sz: 520192 	 Sm: 0 	 T: device_sync(41.077652)
F: 16350417----T: 16353022 	 St: 0 Sz: 4096 	 Sm: 0 	 T: device_sync(1.758947)
F: 16350417----T: 16471506 	 St: 0 Sz: 1044480 	 Sm: 0 	 T: device_sync(81.761650)
F: 16474111----T: 16476716 	 St: 0 Sz: 4096 	 Sm: 0 	 T: device_sync(1.758947)
F: 16474111----T: 16482351 	 St: 0 Sz: 61440 	 Sm: 0 	 T: device_sync(5.563808)
F: 16484956----T: 16487561 	 St: 0 Sz: 4096 	 Sm: 0 	 T: device_sync(1.758947)
F: 16484956----T: 16493196 	 St: 0 Sz: 61440 	 Sm: 0 	 T: device_sync(5.563808)
F: 16495801----T: 16498406 	 St: 0 Sz: 4096 	 Sm: 0 	 T: device_sync(1.758947)
F: 16495801----T: 16511496 	 St: 0 Sz: 126976 	 Sm: 0 	 T: device_sync(10.597569)
F: 16514101----T: 16516706 	 St: 0 Sz: 4096 	 Sm: 0 	 T: device_sync(1.758947)
F: 16514101----T: 16544824 	 St: 0 Sz: 258048 	 Sm: 0 	 T: device_sync(20.744766)
F: 16547429----T: 16550034 	 St: 0 Sz: 4096 	 Sm: 0 	 T: device_sync(1.758947)
F: 16547429----T: 16608265 	 St: 0 Sz: 520192 	 Sm: 0 	 T: device_sync(41.077652)
Tot_prefetch_time: 0(cycle), 0.000000(us)
Tot_kernel_exec_time: 13028069(cycle), 8796.805664(us)
Tot_kernel_exec_time_and_fault_time: 18959474(cycle), 12801.805664(us)
Tot_memcpy_h2d_time: 3097422(cycle), 2091.439453(us)
Tot_memcpy_d2h_time: 0(cycle), 0.000000(us)
Tot_memcpy_time: 3097422(cycle), 2091.439453(us)
Tot_devicesync_time: 3138501(cycle), 2119.177002(us)
Tot_writeback_time: 242080(cycle), 163.457123(us)
Tot_dma_time: 9223600(cycle), 6227.954102(us)
Tot_memcpy_d2h_sync_wb_time: 3380581(cycle), 2282.634033(us)
GPGPU-Sim: *** exit detected ***
