

        *** GPGPU-Sim Simulator Version 3.2.2  [build gpgpu-sim_git-commit-81f06f4dfacce9460dffe8b3842afa7b201b4af9_modified_0] ***


GPGPU-Sim PTX: simulation mode 0 (can change with PTX_SIM_MODE_FUNC environment variable:
               1=functional simulation only, 0=detailed performance simulator)
GPGPU-Sim: Configuration options:

-network_mode                           1 # Interconnection network mode
-inter_config_file   config_fermi_islip.icnt # Interconnection network config file
-gpgpu_ptx_use_cuobjdump                    1 # Use cuobjdump to extract ptx and sass from binaries
-gpgpu_experimental_lib_support                    0 # Try to extract code from cuda libraries [Broken because of unknown cudaGetExportTable]
-gpgpu_ptx_convert_to_ptxplus                    0 # Convert SASS (native ISA) to ptxplus and run ptxplus
-gpgpu_ptx_force_max_capability                   20 # Force maximum compute capability
-gpgpu_ptx_inst_debug_to_file                    0 # Dump executed instructions' debug information to file
-gpgpu_ptx_inst_debug_file       inst_debug.txt # Executed instructions' debug output file
-gpgpu_ptx_inst_debug_thread_uid                    1 # Thread UID for executed instructions' debug output
-gpgpu_simd_model                       1 # 1 = post-dominator
-gpgpu_shader_core_pipeline              2048:32 # shader core pipeline config, i.e., {<nthread>:<warpsize>}
-gpgpu_tex_cache:l1  16:128:24,L:R:m:N:L,F:128:4,128:2 # per-shader L1 texture cache  (READ-ONLY) config  {<nsets>:<bsize>:<assoc>,<rep>:<wr>:<alloc>:<wr_alloc>,<mshr>:<N>:<merge>,<mq>:<rf>}
-gpgpu_const_cache:l1 128:64:2,L:R:f:N:L,A:2:64,4 # per-shader L1 constant memory cache  (READ-ONLY) config  {<nsets>:<bsize>:<assoc>,<rep>:<wr>:<alloc>:<wr_alloc>,<mshr>:<N>:<merge>,<mq>} 
-gpgpu_cache:il1     8:128:4,L:R:f:N:L,A:2:48,4 # shader L1 instruction cache config  {<nsets>:<bsize>:<assoc>,<rep>:<wr>:<alloc>:<wr_alloc>,<mshr>:<N>:<merge>,<mq>} 
-gpgpu_cache:dl1     64:128:6,L:L:m:N:H,A:128:8,8 # per-shader L1 data cache config  {<nsets>:<bsize>:<assoc>,<rep>:<wr>:<alloc>:<wr_alloc>,<mshr>:<N>:<merge>,<mq> | none}
-gpgpu_cache:dl1PrefL1                 none # per-shader L1 data cache config  {<nsets>:<bsize>:<assoc>,<rep>:<wr>:<alloc>:<wr_alloc>,<mshr>:<N>:<merge>,<mq> | none}
-gpgpu_cache:dl1PrefShared                 none # per-shader L1 data cache config  {<nsets>:<bsize>:<assoc>,<rep>:<wr>:<alloc>:<wr_alloc>,<mshr>:<N>:<merge>,<mq> | none}
-gmem_skip_L1D                          1 # global memory access skip L1D cache (implements -Xptxas -dlcm=cg, default=no skip)
-gpgpu_perfect_mem                      0 # enable perfect memory mode (no cache miss)
-n_regfile_gating_group                    4 # group of lanes that should be read/written together)
-gpgpu_clock_gated_reg_file                    0 # enable clock gated reg file for power calculations
-gpgpu_clock_gated_lanes                    0 # enable clock gated lanes for power calculations
-gpgpu_shader_registers                65536 # Number of registers per shader core. Limits number of concurrent CTAs. (default 8192)
-gpgpu_shader_cta                      32 # Maximum number of concurrent CTAs in shader (default 8)
-gpgpu_num_cta_barriers                   16 # Maximum number of named barriers per CTA (default 16)
-gpgpu_n_clusters                      28 # number of processing clusters
-gpgpu_n_cores_per_cluster                    1 # number of simd cores per cluster
-gpgpu_n_cluster_ejection_buffer_size                    8 # number of packets in ejection buffer
-gpgpu_n_ldst_response_buffer_size                    2 # number of response packets in ld/st unit ejection buffer
-gpgpu_shmem_size                   16384 # Size of shared memory per shader core (default 16kB)
-gpgpu_shmem_size                   98304 # Size of shared memory per shader core (default 16kB)
-gpgpu_shmem_size_PrefL1                16384 # Size of shared memory per shader core (default 16kB)
-gpgpu_shmem_size_PrefShared                16384 # Size of shared memory per shader core (default 16kB)
-gpgpu_shmem_num_banks                   32 # Number of banks in the shared memory in each shader core (default 16)
-gpgpu_shmem_limited_broadcast                    0 # Limit shared memory to do one broadcast per cycle (default on)
-gpgpu_shmem_warp_parts                    1 # Number of portions a warp is divided into for shared memory bank conflict check 
-gpgpu_warpdistro_shader                   -1 # Specify which shader core to collect the warp size distribution from
-gpgpu_warp_issue_shader                    0 # Specify which shader core to collect the warp issue distribution from
-gpgpu_local_mem_map                    1 # Mapping from local memory space address to simulated GPU physical address space (default = enabled)
-gpgpu_num_reg_banks                   32 # Number of register banks (default = 8)
-gpgpu_reg_bank_use_warp_id                    0 # Use warp ID in mapping registers to banks (default = off)
-gpgpu_operand_collector_num_units_sp                   20 # number of collector units (default = 4)
-gpgpu_operand_collector_num_units_sfu                    4 # number of collector units (default = 4)
-gpgpu_operand_collector_num_units_mem                    8 # number of collector units (default = 2)
-gpgpu_operand_collector_num_units_gen                    0 # number of collector units (default = 0)
-gpgpu_operand_collector_num_in_ports_sp                    4 # number of collector unit in ports (default = 1)
-gpgpu_operand_collector_num_in_ports_sfu                    1 # number of collector unit in ports (default = 1)
-gpgpu_operand_collector_num_in_ports_mem                    1 # number of collector unit in ports (default = 1)
-gpgpu_operand_collector_num_in_ports_gen                    0 # number of collector unit in ports (default = 0)
-gpgpu_operand_collector_num_out_ports_sp                    4 # number of collector unit in ports (default = 1)
-gpgpu_operand_collector_num_out_ports_sfu                    1 # number of collector unit in ports (default = 1)
-gpgpu_operand_collector_num_out_ports_mem                    1 # number of collector unit in ports (default = 1)
-gpgpu_operand_collector_num_out_ports_gen                    0 # number of collector unit in ports (default = 0)
-gpgpu_coalesce_arch                   13 # Coalescing arch (default = 13, anything else is off for now)
-gpgpu_num_sched_per_core                    2 # Number of warp schedulers per core
-gpgpu_max_insn_issue_per_warp                    2 # Max number of instructions that can be issued per warp in one cycle by scheduler
-gpgpu_simt_core_sim_order                    1 # Select the simulation order of cores in a cluster (0=Fix, 1=Round-Robin)
-gpgpu_pipeline_widths        4,1,1,4,1,1,6 # Pipeline widths ID_OC_SP,ID_OC_SFU,ID_OC_MEM,OC_EX_SP,OC_EX_SFU,OC_EX_MEM,EX_WB
-gpgpu_num_sp_units                     4 # Number of SP units (default=1)
-gpgpu_num_sfu_units                    1 # Number of SF units (default=1)
-gpgpu_num_mem_units                    1 # Number if ldst units (default=1) WARNING: not hooked up to anything
-gpgpu_scheduler                      gto # Scheduler configuration: < lrr | gto | two_level_active > If two_level_active:<num_active_warps>:<inner_prioritization>:<outer_prioritization>For complete list of prioritization values see shader.h enum scheduler_prioritization_typeDefault: gto
-gpgpu_concurrent_kernel_sm                    0 # Support concurrent kernels on a SM (default = disabled)
-tlb_size                            4096 # Number of tlb entries per SM.
-gpgpu_dram_scheduler                    1 # 0 = fifo, 1 = FR-FCFS (defaul)
-gpgpu_dram_partition_queues              8:8:8:8 # i2$:$2d:d2$:$2i
-l2_ideal                               0 # Use a ideal L2 cache that always hit
-gpgpu_cache:dl2     64:128:16,L:B:m:W:L,A:1024:1024,4:0,32 # unified banked L2 data cache config  {<nsets>:<bsize>:<assoc>,<rep>:<wr>:<alloc>:<wr_alloc>,<mshr>:<N>:<merge>,<mq>}
-gpgpu_cache:dl2_texture_only                    0 # L2 cache used for texture only
-gpgpu_n_mem                           11 # number of memory modules (e.g. memory controllers) in gpu
-gpgpu_n_sub_partition_per_mchannel                    2 # number of memory subpartition in each memory module
-gpgpu_n_mem_per_ctrlr                    1 # number of memory chips per memory controller
-gpgpu_memlatency_stat                   14 # track and display latency statistics 0x2 enables MC, 0x4 enables queue logs
-gpgpu_frfcfs_dram_sched_queue_size                   64 # 0 = unlimited (default); # entries per chip
-gpgpu_dram_return_queue_size                  116 # 0 = unlimited (default); # entries per chip
-gpgpu_dram_buswidth                    4 # default = 4 bytes (8 bytes per cycle at DDR)
-gpgpu_dram_burst_length                    8 # Burst length of each DRAM request (default = 4 data bus cycle)
-dram_data_command_freq_ratio                    4 # Frequency ratio between DRAM data bus and command bus (default = 2 times, i.e. DDR)
-gpgpu_dram_timing_opt nbk=16:CCD=2:RRD=6:RCD=12:RAS=28:RP=12:RC=40: CL=12:WL=4:CDLR=5:WR=12:nbkgrp=1:CCDL=0:RTPL=0 # DRAM timing parameters = {nbk:tCCD:tRRD:tRCD:tRAS:tRP:tRC:CL:WL:tCDLR:tWR:nbkgrp:tCCDL:tRTPL}
-rop_latency                          120 # ROP queue latency (default 85)
-dram_latency                         100 # DRAM latency (default 30)
-gpgpu_mem_addr_mapping dramid@8;00000000.00000000.00000000.00000000.0000RRRR.RRRRRRRR.RBBBCCCC.BCCSSSSS # mapping memory address to dram model {dramid@<start bit>;<memory address map>}
-gpgpu_mem_addr_test                    0 # run sweep test to check address mapping for aliased address
-gpgpu_mem_address_mask                    1 # 0 = old addressing mask, 1 = new addressing mask, 2 = new add. mask + flipped bank sel and chip sel bits
-gpuwattch_xml_file  gpuwattch_geforcegtx1080ti.xml # GPUWattch XML file
-power_simulation_enabled                    1 # Turn on power simulator (1=On, 0=Off)
-power_per_cycle_dump                    0 # Dump detailed power output each cycle
-power_trace_enabled                    0 # produce a file for the power trace (1=On, 0=Off)
-power_trace_zlevel                     6 # Compression level of the power trace output log (0=no comp, 9=highest)
-steady_power_levels_enabled                    0 # produce a file for the steady power levels (1=On, 0=Off)
-steady_state_definition                  8:4 # allowed deviation:number of samples
-gpgpu_max_cycle                        0 # terminates gpu simulation early (0 = no limit)
-gpgpu_max_insn                         0 # terminates gpu simulation early (0 = no limit)
-gpgpu_max_cta                          0 # terminates gpu simulation early (0 = no limit)
-gpgpu_runtime_stat                   500 # display runtime statistics such as dram utilization {<freq>:<flag>}
-liveness_message_freq                    1 # Minimum number of seconds between simulation liveness messages (0 = always print)
-gpgpu_flush_l1_cache                    0 # Flush L1 cache at the end of each kernel call
-gpgpu_flush_l2_cache                    0 # Flush L2 cache at the end of each kernel call
-gpgpu_deadlock_detect                    0 # Stop the simulation at deadlock (1=on (default), 0=off)
-gpgpu_ptx_instruction_classification                    0 # if enabled will classify ptx instruction types per kernel (Max 255 kernels now)
-gpgpu_ptx_sim_mode                     0 # Select between Performance (default) or Functional simulation (1)
-gpgpu_clock_domains 1481.0:2962.0:1481.0:2750.0 # Clock Domain Frequencies in MhZ {<Core Clock>:<ICNT Clock>:<L2 Clock>:<DRAM Clock>}
-gpgpu_max_concurrent_kernel                    8 # maximum kernels that can run concurrently on GPU
-gpgpu_cflog_interval                    0 # Interval between each snapshot in control flow logger
-visualizer_enabled                     0 # Turn on visualizer output (1=On, 0=Off)
-visualizer_outputfile                 NULL # Specifies the output log file for visualizer
-visualizer_zlevel                      6 # Compression level of the visualizer output log (0=no comp, 9=highest)
-trace_enabled                          0 # Turn on traces
-trace_components                    none # comma seperated list of traces to enable. Complete list found in trace_streams.tup. Default none
-trace_sampling_core                    0 # The core which is printed using CORE_DPRINTF. Default 0
-trace_sampling_memory_partition                   -1 # The memory partition which is printed using MEMPART_DPRINTF. Default -1 (i.e. all)
-gddr_size                            1GB # Size of GDDR in MB/GB.(GLOBAL_HEAP_START, GLOBAL_HEAP_START + gddr_size) would be used for unmanged memory, (GLOBAL_HEAP_START + gddr_size, GLOBAL_HEAP_START + gddr_size*2) would be used for managed memory. 
-page_table_walk_latency                  100 # Average page table walk latency (in core cycle).
-eviction_policy                        0 # Select page eviction policy
-invalidate_clean                       0 # Should directly invalidate clean pages
-reserve_accessed_page_percent                    0 # Percentage of accessed pages reserved from eviction in hope that they will be accessed in next iteration.
-percentage_of_free_page_buffer                    0 # Percentage of free page buffer to trigger the page eviction.
-page_size                            4KB # GDDR page size, only 4KB/2MB avaliable.
-pcie_bandwidth                  16.0GB/s # PCI-e bandwidth per direction, in GB/s.
-enable_dma                             2 # Enable direct access to CPU memory
-multiply_dma_penalty                    2 # Oversubscription Multiplicative Penalty Factor for Adaptive DMA
-migrate_threshold                     16 # Access counter threshold for migrating the page from cpu to gpu
-sim_prof_enable                        1 # Enable gpgpu-sim profiler
-hardware_prefetch                      1 # Select gpgpu-sim hardware prefetcher
-hwprefetch_oversub                     1 # Select gpgpu-sim hardware prefetcher under over-subscription
-page_fault_latency                 66645 # Average fault latency (in core cycle).
-enable_accurate_simulation                    0 # Enable page fault functional simulation.
-enable_ptx_file_line_stats                    1 # Turn on PTX source line statistic profiling. (1 = On)
-ptx_line_stats_filename gpgpu_inst_stats.txt # Output file for PTX source line statistics.
-gpgpu_kernel_launch_latency               222150 # Kernel launch latency in cycles. Default: 0
-gpgpu_cdp_enabled                      0 # Turn on CDP
-save_embedded_ptx                      0 # saves ptx files embedded in binary as <n>.ptx
-keep                                   0 # keep intermediate files created by GPGPU-Sim when interfacing with external programs
-gpgpu_ptx_save_converted_ptxplus                    0 # Saved converted ptxplus to a file
-ptx_opcode_latency_int         4,13,4,5,145 # Opcode latencies for integers <ADD,MAX,MUL,MAD,DIV>Default 1,1,19,25,145
-ptx_opcode_latency_fp          4,13,4,5,39 # Opcode latencies for single precision floating points <ADD,MAX,MUL,MAD,DIV>Default 1,1,1,1,30
-ptx_opcode_latency_dp         8,19,8,8,330 # Opcode latencies for double precision floating points <ADD,MAX,MUL,MAD,DIV>Default 8,8,8,8,335
-ptx_opcode_initiation_int            1,2,2,2,8 # Opcode initiation intervals for integers <ADD,MAX,MUL,MAD,DIV>Default 1,1,4,4,32
-ptx_opcode_initiation_fp            1,2,1,1,4 # Opcode initiation intervals for single precision floating points <ADD,MAX,MUL,MAD,DIV>Default 1,1,1,1,5
-ptx_opcode_initiation_dp          1,2,1,1,130 # Opcode initiation intervals for double precision floating points <ADD,MAX,MUL,MAD,DIV>Default 8,8,8,8,130
-cdp_latency         7200,8000,100,12000,1600 # CDP API latency <cudaStreamCreateWithFlags, cudaGetParameterBufferV2_init_perWarp, cudaGetParameterBufferV2_perKernel, cudaLaunchDeviceV2_init_perWarp, cudaLaunchDevicV2_perKernel>Default 7200,8000,100,12000,1600
DRAM Timing Options:
nbk                                    16 # number of banks
CCD                                     2 # column to column delay
RRD                                     6 # minimal delay between activation of rows in different banks
RCD                                    12 # row to column delay
RAS                                    28 # time needed to activate row
RP                                     12 # time needed to precharge (deactivate) row
RC                                     40 # row cycle time
CDLR                                    5 # switching from write to read (changes tWTR)
WR                                     12 # last data-in to row precharge
CL                                     12 # CAS latency
WL                                      4 # Write latency
nbkgrp                                  1 # number of bank groups
CCDL                                    0 # column to column delay between accesses to different bank groups
RTPL                                    0 # read to precharge delay between accesses to different bank groups
Total number of memory sub partition = 22
addr_dec_mask[CHIP]  = 0000000000000000 	high:64 low:0
addr_dec_mask[BK]    = 0000000000007080 	high:15 low:7
addr_dec_mask[ROW]   = 000000000fff8000 	high:28 low:15
addr_dec_mask[COL]   = 0000000000000f7f 	high:12 low:0
addr_dec_mask[BURST] = 000000000000001f 	high:5 low:0
sub_partition_id_mask = 0000000000000080
GPGPU-Sim uArch: clock freqs: 1481000000.000000:2962000000.000000:1481000000.000000:2750000000.000000
GPGPU-Sim uArch: clock periods: 0.00000000067521944632:0.00000000033760972316:0.00000000067521944632:0.00000000036363636364
*** Initializing Memory Statistics ***
GPGPU-Sim uArch: interconnect node map (shaderID+MemID to icntID)
GPGPU-Sim uArch: Memory nodes ID start from index: 28
GPGPU-Sim uArch:    0   1   2   3   4   5   6
GPGPU-Sim uArch:    7   8   9  10  11  12  13
GPGPU-Sim uArch:   14  15  16  17  18  19  20
GPGPU-Sim uArch:   21  22  23  24  25  26  27
GPGPU-Sim uArch:   28  29  30  31  32  33  34
GPGPU-Sim uArch:   35  36  37  38  39  40  41
GPGPU-Sim uArch:   42  43  44  45  46  47  48
GPGPU-Sim uArch:   49
GPGPU-Sim uArch: interconnect node reverse map (icntID to shaderID+MemID)
GPGPU-Sim uArch: Memory nodes start from ID: 28
GPGPU-Sim uArch:    0   1   2   3   4   5   6
GPGPU-Sim uArch:    7   8   9  10  11  12  13
GPGPU-Sim uArch:   14  15  16  17  18  19  20
GPGPU-Sim uArch:   21  22  23  24  25  26  27
GPGPU-Sim uArch:   28  29  30  31  32  33  34
GPGPU-Sim uArch:   35  36  37  38  39  40  41
GPGPU-Sim uArch:   42  43  44  45  46  47  48
GPGPU-Sim uArch:   49
f2bb7d2b51ca0cb3858841b3824d1fe9  /root/gpgpu-sim_UVMSmart/benchmarks/Managed/backprop/backprop
GPGPU-Sim uArch: performance model initialization complete.
GPGPU-Sim PTX: __cudaRegisterFatBinary, fat_cubin_handle = 1, filename=default
self exe links to: /root/gpgpu-sim_UVMSmart/benchmarks/Managed/backprop/backprop
Running md5sum using "md5sum /root/gpgpu-sim_UVMSmart/benchmarks/Managed/backprop/backprop "
Parsing file _cuobjdump_complete_output_aIm5uf
######### cuobjdump parser ########
## Adding new section ELF
Adding arch: sm_20
Adding identifier: default
## Adding new section ELF
Adding arch: sm_20
Adding identifier: default
## Adding new section PTX
Adding ptx filename: _cuobjdump_1.ptx
Adding arch: sm_20
Adding identifier: default
Done parsing!!!
GPGPU-Sim PTX: __cudaRegisterFunction _Z24bpnn_adjust_weights_cudaPfiS_iS_S_ : hostFun 0x0x402d51, fat_cubin_handle = 1
GPGPU-Sim PTX: allocating shared region for "_Z22bpnn_layerforward_CUDAPfS_S_S_ii$__cuda_local_var_17900_34_non_const_input_node" from 0x0 to 0x40 (shared memory space)
GPGPU-Sim PTX: allocating shared region for "_Z22bpnn_layerforward_CUDAPfS_S_S_ii$__cuda_local_var_17901_34_non_const_weight_matrix" from 0x80 to 0x480 (shared memory space)
GPGPU-Sim PTX: instruction assembly for function '_Z22bpnn_layerforward_CUDAPfS_S_S_ii'...   done.
GPGPU-Sim PTX: finding reconvergence points for '_Z22bpnn_layerforward_CUDAPfS_S_S_ii'...
GPGPU-Sim PTX: Finding dominators for '_Z22bpnn_layerforward_CUDAPfS_S_S_ii'...
GPGPU-Sim PTX: Finding immediate dominators for '_Z22bpnn_layerforward_CUDAPfS_S_S_ii'...
GPGPU-Sim PTX: Finding postdominators for '_Z22bpnn_layerforward_CUDAPfS_S_S_ii'...
GPGPU-Sim PTX: Finding immediate postdominators for '_Z22bpnn_layerforward_CUDAPfS_S_S_ii'...
GPGPU-Sim PTX: pre-decoding instructions for '_Z22bpnn_layerforward_CUDAPfS_S_S_ii'...
GPGPU-Sim PTX: reconvergence points for _Z22bpnn_layerforward_CUDAPfS_S_S_ii...
GPGPU-Sim PTX:  1 (potential) branch divergence @  PC=0x068 (_1.ptx:47) @%p2 bra BB0_2;
GPGPU-Sim PTX:    immediate post dominator      @  PC=0x0a0 (_1.ptx:57) cvta.to.global.u64 %rd3, %rd8;
GPGPU-Sim PTX:  2 (potential) branch divergence @  PC=0x168 (_1.ptx:82) @%p3 bra BB0_7;
GPGPU-Sim PTX:    immediate post dominator      @  PC=0x250 (_1.ptx:119) setp.eq.s32%p1, %r3, 0;
GPGPU-Sim PTX:  3 (potential) branch divergence @  PC=0x1c8 (_1.ptx:97) @%p4 bra BB0_6;
GPGPU-Sim PTX:    immediate post dominator      @  PC=0x228 (_1.ptx:112) bar.sync 0;
GPGPU-Sim PTX:  4 (potential) branch divergence @  PC=0x248 (_1.ptx:116) @%p5 bra BB0_4;
GPGPU-Sim PTX:    immediate post dominator      @  PC=0x250 (_1.ptx:119) setp.eq.s32%p1, %r3, 0;
GPGPU-Sim PTX:  5 (potential) branch divergence @  PC=0x270 (_1.ptx:123) @!%p1 bra BB0_9;
GPGPU-Sim PTX:    immediate post dominator      @  PC=0x2c8 (_1.ptx:138) ret;
GPGPU-Sim PTX:  6 (potential) branch divergence @  PC=0x278 (_1.ptx:124) bra.uni BB0_8;
GPGPU-Sim PTX:    immediate post dominator      @  PC=0x280 (_1.ptx:127) cvt.u32.u64%r20, %rd1;
GPGPU-Sim PTX: ... end of reconvergence points for _Z22bpnn_layerforward_CUDAPfS_S_S_ii
GPGPU-Sim PTX: ... done pre-decoding instructions for '_Z22bpnn_layerforward_CUDAPfS_S_S_ii'.
GPGPU-Sim PTX: instruction assembly for function '_Z24bpnn_adjust_weights_cudaPfiS_iS_S_'...   done.
GPGPU-Sim PTX: finding reconvergence points for '_Z24bpnn_adjust_weights_cudaPfiS_iS_S_'...
GPGPU-Sim PTX: Finding dominators for '_Z24bpnn_adjust_weights_cudaPfiS_iS_S_'...
GPGPU-Sim PTX: Finding immediate dominators for '_Z24bpnn_adjust_weights_cudaPfiS_iS_S_'...
GPGPU-Sim PTX: Finding postdominators for '_Z24bpnn_adjust_weights_cudaPfiS_iS_S_'...
GPGPU-Sim PTX: Finding immediate postdominators for '_Z24bpnn_adjust_weights_cudaPfiS_iS_S_'...
GPGPU-Sim PTX: pre-decoding instructions for '_Z24bpnn_adjust_weights_cudaPfiS_iS_S_'...
GPGPU-Sim PTX: reconvergence points for _Z24bpnn_adjust_weights_cudaPfiS_iS_S_...
GPGPU-Sim PTX:  1 (potential) branch divergence @  PC=0x470 (_1.ptx:210) @%p1 bra BB1_2;
GPGPU-Sim PTX:    immediate post dominator      @  PC=0x530 (_1.ptx:237) ret;
GPGPU-Sim PTX: ... end of reconvergence points for _Z24bpnn_adjust_weights_cudaPfiS_iS_S_
GPGPU-Sim PTX: ... done pre-decoding instructions for '_Z24bpnn_adjust_weights_cudaPfiS_iS_S_'.
GPGPU-Sim PTX: finished parsing EMBEDDED .ptx file _1.ptx
Adding _cuobjdump_1.ptx with cubin handle 1
GPGPU-Sim PTX: extracting embedded .ptx to temporary file "_ptx_f3YAa6"
Running: cat _ptx_f3YAa6 | sed 's/.version 1.5/.version 1.4/' | sed 's/, texmode_independent//' | sed 's/\(\.extern \.const\[1\] .b8 \w\+\)\[\]/\1\[1\]/' | sed 's/const\[.\]/const\[0\]/g' > _ptx2_8Ix7PW
GPGPU-Sim PTX: generating ptxinfo using "$CUDA_INSTALL_PATH/bin/ptxas --gpu-name=sm_20 -v _ptx2_8Ix7PW --output-file  /dev/null 2> _ptx_f3YAa6info"
GPGPU-Sim PTX: Kernel '_Z24bpnn_adjust_weights_cudaPfiS_iS_S_' : regs=22, lmem=0, smem=0, cmem=80
GPGPU-Sim PTX: Kernel '_Z22bpnn_layerforward_CUDAPfS_S_S_ii' : regs=11, lmem=0, smem=1088, cmem=72
GPGPU-Sim PTX: removing ptxinfo using "rm -f _ptx_f3YAa6 _ptx2_8Ix7PW _ptx_f3YAa6info"
GPGPU-Sim PTX: loading globals with explicit initializers... 
GPGPU-Sim PTX: finished loading globals (0 bytes total).
GPGPU-Sim PTX: loading constants with explicit initializers...  done.
GPGPU-Sim PTX: __cudaRegisterFunction _Z22bpnn_layerforward_CUDAPfS_S_S_ii : hostFun 0x0x402c00, fat_cubin_handle = 1
Random number generator seed: 7
Input layer size : 131056
Starting training kernel
Performing GPU computation

GPGPU-Sim PTX: cudaLaunch for 0x0x402c00 (mode=performance simulation) on stream 0
GPGPU-Sim PTX: pushing kernel '_Z22bpnn_layerforward_CUDAPfS_S_S_ii' to stream 0, gridDim= (1,8191,1) blockDim = (16,16,1) 
GPGPU-Sim uArch: Shader 1 bind to kernel 1 '_Z22bpnn_layerforward_CUDAPfS_S_S_ii'
GPGPU-Sim uArch: CTA/core = 8, limited by: threads
GPGPU-Sim uArch: Shader 2 bind to kernel 1 '_Z22bpnn_layerforward_CUDAPfS_S_S_ii'
GPGPU-Sim uArch: Shader 3 bind to kernel 1 '_Z22bpnn_layerforward_CUDAPfS_S_S_ii'
GPGPU-Sim uArch: Shader 4 bind to kernel 1 '_Z22bpnn_layerforward_CUDAPfS_S_S_ii'
GPGPU-Sim uArch: Shader 5 bind to kernel 1 '_Z22bpnn_layerforward_CUDAPfS_S_S_ii'
GPGPU-Sim uArch: Shader 6 bind to kernel 1 '_Z22bpnn_layerforward_CUDAPfS_S_S_ii'
GPGPU-Sim uArch: Shader 7 bind to kernel 1 '_Z22bpnn_layerforward_CUDAPfS_S_S_ii'
GPGPU-Sim uArch: Shader 8 bind to kernel 1 '_Z22bpnn_layerforward_CUDAPfS_S_S_ii'
GPGPU-Sim uArch: Shader 9 bind to kernel 1 '_Z22bpnn_layerforward_CUDAPfS_S_S_ii'
GPGPU-Sim uArch: Shader 10 bind to kernel 1 '_Z22bpnn_layerforward_CUDAPfS_S_S_ii'
GPGPU-Sim uArch: Shader 11 bind to kernel 1 '_Z22bpnn_layerforward_CUDAPfS_S_S_ii'
GPGPU-Sim uArch: Shader 12 bind to kernel 1 '_Z22bpnn_layerforward_CUDAPfS_S_S_ii'
GPGPU-Sim uArch: Shader 13 bind to kernel 1 '_Z22bpnn_layerforward_CUDAPfS_S_S_ii'
GPGPU-Sim uArch: Shader 14 bind to kernel 1 '_Z22bpnn_layerforward_CUDAPfS_S_S_ii'
GPGPU-Sim uArch: Shader 15 bind to kernel 1 '_Z22bpnn_layerforward_CUDAPfS_S_S_ii'
GPGPU-Sim uArch: Shader 16 bind to kernel 1 '_Z22bpnn_layerforward_CUDAPfS_S_S_ii'
GPGPU-Sim uArch: Shader 17 bind to kernel 1 '_Z22bpnn_layerforward_CUDAPfS_S_S_ii'
GPGPU-Sim uArch: Shader 18 bind to kernel 1 '_Z22bpnn_layerforward_CUDAPfS_S_S_ii'
GPGPU-Sim uArch: Shader 19 bind to kernel 1 '_Z22bpnn_layerforward_CUDAPfS_S_S_ii'
GPGPU-Sim uArch: Shader 20 bind to kernel 1 '_Z22bpnn_layerforward_CUDAPfS_S_S_ii'
GPGPU-Sim uArch: Shader 21 bind to kernel 1 '_Z22bpnn_layerforward_CUDAPfS_S_S_ii'
GPGPU-Sim uArch: Shader 22 bind to kernel 1 '_Z22bpnn_layerforward_CUDAPfS_S_S_ii'
GPGPU-Sim uArch: Shader 23 bind to kernel 1 '_Z22bpnn_layerforward_CUDAPfS_S_S_ii'
GPGPU-Sim uArch: Shader 24 bind to kernel 1 '_Z22bpnn_layerforward_CUDAPfS_S_S_ii'
GPGPU-Sim uArch: Shader 25 bind to kernel 1 '_Z22bpnn_layerforward_CUDAPfS_S_S_ii'
GPGPU-Sim uArch: Shader 26 bind to kernel 1 '_Z22bpnn_layerforward_CUDAPfS_S_S_ii'
GPGPU-Sim uArch: Shader 27 bind to kernel 1 '_Z22bpnn_layerforward_CUDAPfS_S_S_ii'
GPGPU-Sim uArch: Shader 0 bind to kernel 1 '_Z22bpnn_layerforward_CUDAPfS_S_S_ii'
GPGPU-Sim uArch: Shader 17 bind to kernel 1 '_Z22bpnn_layerforward_CUDAPfS_S_S_ii'
GPGPU-Sim uArch: Shader 18 bind to kernel 1 '_Z22bpnn_layerforward_CUDAPfS_S_S_ii'
GPGPU-Sim uArch: Shader 19 bind to kernel 1 '_Z22bpnn_layerforward_CUDAPfS_S_S_ii'
GPGPU-Sim uArch: Shader 20 bind to kernel 1 '_Z22bpnn_layerforward_CUDAPfS_S_S_ii'
GPGPU-Sim uArch: Shader 21 bind to kernel 1 '_Z22bpnn_layerforward_CUDAPfS_S_S_ii'
GPGPU-Sim uArch: Shader 22 bind to kernel 1 '_Z22bpnn_layerforward_CUDAPfS_S_S_ii'
GPGPU-Sim uArch: Shader 23 bind to kernel 1 '_Z22bpnn_layerforward_CUDAPfS_S_S_ii'
GPGPU-Sim uArch: Shader 24 bind to kernel 1 '_Z22bpnn_layerforward_CUDAPfS_S_S_ii'
GPGPU-Sim uArch: Shader 25 bind to kernel 1 '_Z22bpnn_layerforward_CUDAPfS_S_S_ii'
GPGPU-Sim uArch: Shader 26 bind to kernel 1 '_Z22bpnn_layerforward_CUDAPfS_S_S_ii'
GPGPU-Sim uArch: Shader 27 bind to kernel 1 '_Z22bpnn_layerforward_CUDAPfS_S_S_ii'
GPGPU-Sim uArch: Shader 0 bind to kernel 1 '_Z22bpnn_layerforward_CUDAPfS_S_S_ii'
GPGPU-Sim uArch: Shader 1 bind to kernel 1 '_Z22bpnn_layerforward_CUDAPfS_S_S_ii'
GPGPU-Sim uArch: Shader 2 bind to kernel 1 '_Z22bpnn_layerforward_CUDAPfS_S_S_ii'
GPGPU-Sim uArch: Shader 3 bind to kernel 1 '_Z22bpnn_layerforward_CUDAPfS_S_S_ii'
GPGPU-Sim uArch: Shader 4 bind to kernel 1 '_Z22bpnn_layerforward_CUDAPfS_S_S_ii'
GPGPU-Sim uArch: Shader 5 bind to kernel 1 '_Z22bpnn_layerforward_CUDAPfS_S_S_ii'
GPGPU-Sim uArch: Shader 6 bind to kernel 1 '_Z22bpnn_layerforward_CUDAPfS_S_S_ii'
GPGPU-Sim uArch: Shader 7 bind to kernel 1 '_Z22bpnn_layerforward_CUDAPfS_S_S_ii'
GPGPU-Sim uArch: Shader 8 bind to kernel 1 '_Z22bpnn_layerforward_CUDAPfS_S_S_ii'
GPGPU-Sim uArch: Shader 9 bind to kernel 1 '_Z22bpnn_layerforward_CUDAPfS_S_S_ii'
GPGPU-Sim uArch: Shader 10 bind to kernel 1 '_Z22bpnn_layerforward_CUDAPfS_S_S_ii'
GPGPU-Sim uArch: Shader 11 bind to kernel 1 '_Z22bpnn_layerforward_CUDAPfS_S_S_ii'
GPGPU-Sim uArch: Shader 12 bind to kernel 1 '_Z22bpnn_layerforward_CUDAPfS_S_S_ii'
GPGPU-Sim uArch: Shader 13 bind to kernel 1 '_Z22bpnn_layerforward_CUDAPfS_S_S_ii'
GPGPU-Sim uArch: Shader 14 bind to kernel 1 '_Z22bpnn_layerforward_CUDAPfS_S_S_ii'
GPGPU-Sim uArch: Shader 15 bind to kernel 1 '_Z22bpnn_layerforward_CUDAPfS_S_S_ii'
GPGPU-Sim uArch: Shader 16 bind to kernel 1 '_Z22bpnn_layerforward_CUDAPfS_S_S_ii'
GPGPU-Sim uArch: Shader 5 bind to kernel 1 '_Z22bpnn_layerforward_CUDAPfS_S_S_ii'
GPGPU-Sim uArch: Shader 8 bind to kernel 1 '_Z22bpnn_layerforward_CUDAPfS_S_S_ii'
GPGPU-Sim uArch: Shader 9 bind to kernel 1 '_Z22bpnn_layerforward_CUDAPfS_S_S_ii'
GPGPU-Sim uArch: Shader 14 bind to kernel 1 '_Z22bpnn_layerforward_CUDAPfS_S_S_ii'
GPGPU-Sim uArch: Shader 15 bind to kernel 1 '_Z22bpnn_layerforward_CUDAPfS_S_S_ii'
GPGPU-Sim uArch: Shader 17 bind to kernel 1 '_Z22bpnn_layerforward_CUDAPfS_S_S_ii'
GPGPU-Sim uArch: Shader 18 bind to kernel 1 '_Z22bpnn_layerforward_CUDAPfS_S_S_ii'
GPGPU-Sim uArch: Shader 19 bind to kernel 1 '_Z22bpnn_layerforward_CUDAPfS_S_S_ii'
GPGPU-Sim uArch: Shader 21 bind to kernel 1 '_Z22bpnn_layerforward_CUDAPfS_S_S_ii'
GPGPU-Sim uArch: Shader 22 bind to kernel 1 '_Z22bpnn_layerforward_CUDAPfS_S_S_ii'
GPGPU-Sim uArch: Shader 23 bind to kernel 1 '_Z22bpnn_layerforward_CUDAPfS_S_S_ii'
GPGPU-Sim uArch: Shader 26 bind to kernel 1 '_Z22bpnn_layerforward_CUDAPfS_S_S_ii'
GPGPU-Sim uArch: Shader 11 bind to kernel 1 '_Z22bpnn_layerforward_CUDAPfS_S_S_ii'
GPGPU-Sim uArch: Shader 16 bind to kernel 1 '_Z22bpnn_layerforward_CUDAPfS_S_S_ii'
GPGPU-Sim uArch: Shader 3 bind to kernel 1 '_Z22bpnn_layerforward_CUDAPfS_S_S_ii'
GPGPU-Sim uArch: Shader 4 bind to kernel 1 '_Z22bpnn_layerforward_CUDAPfS_S_S_ii'
GPGPU-Sim uArch: Shader 5 bind to kernel 1 '_Z22bpnn_layerforward_CUDAPfS_S_S_ii'
GPGPU-Sim uArch: Shader 6 bind to kernel 1 '_Z22bpnn_layerforward_CUDAPfS_S_S_ii'
GPGPU-Sim uArch: Shader 7 bind to kernel 1 '_Z22bpnn_layerforward_CUDAPfS_S_S_ii'
GPGPU-Sim uArch: Shader 8 bind to kernel 1 '_Z22bpnn_layerforward_CUDAPfS_S_S_ii'
GPGPU-Sim uArch: Shader 9 bind to kernel 1 '_Z22bpnn_layerforward_CUDAPfS_S_S_ii'
GPGPU-Sim uArch: Shader 10 bind to kernel 1 '_Z22bpnn_layerforward_CUDAPfS_S_S_ii'
GPGPU-Sim uArch: Shader 11 bind to kernel 1 '_Z22bpnn_layerforward_CUDAPfS_S_S_ii'
GPGPU-Sim uArch: Shader 12 bind to kernel 1 '_Z22bpnn_layerforward_CUDAPfS_S_S_ii'
GPGPU-Sim uArch: Shader 13 bind to kernel 1 '_Z22bpnn_layerforward_CUDAPfS_S_S_ii'
GPGPU-Sim uArch: Shader 14 bind to kernel 1 '_Z22bpnn_layerforward_CUDAPfS_S_S_ii'
GPGPU-Sim uArch: Shader 15 bind to kernel 1 '_Z22bpnn_layerforward_CUDAPfS_S_S_ii'
GPGPU-Sim uArch: Shader 16 bind to kernel 1 '_Z22bpnn_layerforward_CUDAPfS_S_S_ii'
GPGPU-Sim uArch: Shader 17 bind to kernel 1 '_Z22bpnn_layerforward_CUDAPfS_S_S_ii'
GPGPU-Sim uArch: Shader 18 bind to kernel 1 '_Z22bpnn_layerforward_CUDAPfS_S_S_ii'
GPGPU-Sim uArch: Shader 19 bind to kernel 1 '_Z22bpnn_layerforward_CUDAPfS_S_S_ii'
GPGPU-Sim uArch: Shader 20 bind to kernel 1 '_Z22bpnn_layerforward_CUDAPfS_S_S_ii'
GPGPU-Sim uArch: Shader 21 bind to kernel 1 '_Z22bpnn_layerforward_CUDAPfS_S_S_ii'
GPGPU-Sim uArch: Shader 22 bind to kernel 1 '_Z22bpnn_layerforward_CUDAPfS_S_S_ii'
GPGPU-Sim uArch: Shader 23 bind to kernel 1 '_Z22bpnn_layerforward_CUDAPfS_S_S_ii'
GPGPU-Sim uArch: Shader 24 bind to kernel 1 '_Z22bpnn_layerforward_CUDAPfS_S_S_ii'
GPGPU-Sim uArch: Shader 25 bind to kernel 1 '_Z22bpnn_layerforward_CUDAPfS_S_S_ii'
GPGPU-Sim uArch: Shader 26 bind to kernel 1 '_Z22bpnn_layerforward_CUDAPfS_S_S_ii'
GPGPU-Sim uArch: Shader 27 bind to kernel 1 '_Z22bpnn_layerforward_CUDAPfS_S_S_ii'
GPGPU-Sim uArch: Shader 0 bind to kernel 1 '_Z22bpnn_layerforward_CUDAPfS_S_S_ii'
GPGPU-Sim uArch: Shader 1 bind to kernel 1 '_Z22bpnn_layerforward_CUDAPfS_S_S_ii'
GPGPU-Sim uArch: Shader 2 bind to kernel 1 '_Z22bpnn_layerforward_CUDAPfS_S_S_ii'
GPGPU-Sim uArch: Shader 3 bind to kernel 1 '_Z22bpnn_layerforward_CUDAPfS_S_S_ii'
GPGPU-Sim uArch: Shader 4 bind to kernel 1 '_Z22bpnn_layerforward_CUDAPfS_S_S_ii'
GPGPU-Sim uArch: Shader 5 bind to kernel 1 '_Z22bpnn_layerforward_CUDAPfS_S_S_ii'
GPGPU-Sim uArch: Shader 6 bind to kernel 1 '_Z22bpnn_layerforward_CUDAPfS_S_S_ii'
GPGPU-Sim uArch: Shader 7 bind to kernel 1 '_Z22bpnn_layerforward_CUDAPfS_S_S_ii'
GPGPU-Sim uArch: Shader 8 bind to kernel 1 '_Z22bpnn_layerforward_CUDAPfS_S_S_ii'
GPGPU-Sim uArch: Shader 9 bind to kernel 1 '_Z22bpnn_layerforward_CUDAPfS_S_S_ii'
GPGPU-Sim uArch: Shader 10 bind to kernel 1 '_Z22bpnn_layerforward_CUDAPfS_S_S_ii'
GPGPU-Sim uArch: Shader 11 bind to kernel 1 '_Z22bpnn_layerforward_CUDAPfS_S_S_ii'
GPGPU-Sim uArch: Shader 12 bind to kernel 1 '_Z22bpnn_layerforward_CUDAPfS_S_S_ii'
GPGPU-Sim uArch: Shader 13 bind to kernel 1 '_Z22bpnn_layerforward_CUDAPfS_S_S_ii'
GPGPU-Sim uArch: Shader 14 bind to kernel 1 '_Z22bpnn_layerforward_CUDAPfS_S_S_ii'
GPGPU-Sim uArch: Shader 15 bind to kernel 1 '_Z22bpnn_layerforward_CUDAPfS_S_S_ii'
GPGPU-Sim uArch: Shader 16 bind to kernel 1 '_Z22bpnn_layerforward_CUDAPfS_S_S_ii'
GPGPU-Sim uArch: Shader 17 bind to kernel 1 '_Z22bpnn_layerforward_CUDAPfS_S_S_ii'
GPGPU-Sim uArch: Shader 18 bind to kernel 1 '_Z22bpnn_layerforward_CUDAPfS_S_S_ii'
GPGPU-Sim uArch: Shader 19 bind to kernel 1 '_Z22bpnn_layerforward_CUDAPfS_S_S_ii'
GPGPU-Sim uArch: Shader 20 bind to kernel 1 '_Z22bpnn_layerforward_CUDAPfS_S_S_ii'
GPGPU-Sim uArch: Shader 21 bind to kernel 1 '_Z22bpnn_layerforward_CUDAPfS_S_S_ii'
GPGPU-Sim uArch: Shader 22 bind to kernel 1 '_Z22bpnn_layerforward_CUDAPfS_S_S_ii'
GPGPU-Sim uArch: Shader 23 bind to kernel 1 '_Z22bpnn_layerforward_CUDAPfS_S_S_ii'
GPGPU-Sim uArch: Shader 24 bind to kernel 1 '_Z22bpnn_layerforward_CUDAPfS_S_S_ii'
GPGPU-Sim uArch: Shader 25 bind to kernel 1 '_Z22bpnn_layerforward_CUDAPfS_S_S_ii'
GPGPU-Sim uArch: Shader 26 bind to kernel 1 '_Z22bpnn_layerforward_CUDAPfS_S_S_ii'
GPGPU-Sim uArch: Shader 27 bind to kernel 1 '_Z22bpnn_layerforward_CUDAPfS_S_S_ii'
GPGPU-Sim uArch: Shader 0 bind to kernel 1 '_Z22bpnn_layerforward_CUDAPfS_S_S_ii'
GPGPU-Sim uArch: Shader 1 bind to kernel 1 '_Z22bpnn_layerforward_CUDAPfS_S_S_ii'
GPGPU-Sim uArch: Shader 2 bind to kernel 1 '_Z22bpnn_layerforward_CUDAPfS_S_S_ii'
GPGPU-Sim uArch: Shader 25 bind to kernel 1 '_Z22bpnn_layerforward_CUDAPfS_S_S_ii'
GPGPU-Sim uArch: Shader 1 bind to kernel 1 '_Z22bpnn_layerforward_CUDAPfS_S_S_ii'
GPGPU-Sim uArch: Shader 6 bind to kernel 1 '_Z22bpnn_layerforward_CUDAPfS_S_S_ii'
GPGPU-Sim uArch: Shader 7 bind to kernel 1 '_Z22bpnn_layerforward_CUDAPfS_S_S_ii'
GPGPU-Sim uArch: Shader 8 bind to kernel 1 '_Z22bpnn_layerforward_CUDAPfS_S_S_ii'
GPGPU-Sim uArch: Shader 10 bind to kernel 1 '_Z22bpnn_layerforward_CUDAPfS_S_S_ii'
GPGPU-Sim uArch: Shader 11 bind to kernel 1 '_Z22bpnn_layerforward_CUDAPfS_S_S_ii'
GPGPU-Sim uArch: Shader 18 bind to kernel 1 '_Z22bpnn_layerforward_CUDAPfS_S_S_ii'
GPGPU-Sim uArch: Shader 23 bind to kernel 1 '_Z22bpnn_layerforward_CUDAPfS_S_S_ii'
GPGPU-Sim uArch: Shader 24 bind to kernel 1 '_Z22bpnn_layerforward_CUDAPfS_S_S_ii'
GPGPU-Sim uArch: Shader 25 bind to kernel 1 '_Z22bpnn_layerforward_CUDAPfS_S_S_ii'
GPGPU-Sim uArch: Shader 27 bind to kernel 1 '_Z22bpnn_layerforward_CUDAPfS_S_S_ii'
GPGPU-Sim uArch: Shader 1 bind to kernel 1 '_Z22bpnn_layerforward_CUDAPfS_S_S_ii'
GPGPU-Sim uArch: Shader 2 bind to kernel 1 '_Z22bpnn_layerforward_CUDAPfS_S_S_ii'
GPGPU-Sim uArch: Shader 4 bind to kernel 1 '_Z22bpnn_layerforward_CUDAPfS_S_S_ii'
GPGPU-Sim uArch: Shader 5 bind to kernel 1 '_Z22bpnn_layerforward_CUDAPfS_S_S_ii'
GPGPU-Sim uArch: Shader 6 bind to kernel 1 '_Z22bpnn_layerforward_CUDAPfS_S_S_ii'
GPGPU-Sim uArch: Shader 8 bind to kernel 1 '_Z22bpnn_layerforward_CUDAPfS_S_S_ii'
GPGPU-Sim uArch: Shader 9 bind to kernel 1 '_Z22bpnn_layerforward_CUDAPfS_S_S_ii'
GPGPU-Sim uArch: Shader 11 bind to kernel 1 '_Z22bpnn_layerforward_CUDAPfS_S_S_ii'
GPGPU-Sim uArch: Shader 13 bind to kernel 1 '_Z22bpnn_layerforward_CUDAPfS_S_S_ii'
GPGPU-Sim uArch: Shader 14 bind to kernel 1 '_Z22bpnn_layerforward_CUDAPfS_S_S_ii'
GPGPU-Sim uArch: Shader 15 bind to kernel 1 '_Z22bpnn_layerforward_CUDAPfS_S_S_ii'
GPGPU-Sim uArch: Shader 16 bind to kernel 1 '_Z22bpnn_layerforward_CUDAPfS_S_S_ii'
GPGPU-Sim uArch: Shader 18 bind to kernel 1 '_Z22bpnn_layerforward_CUDAPfS_S_S_ii'
GPGPU-Sim uArch: Shader 19 bind to kernel 1 '_Z22bpnn_layerforward_CUDAPfS_S_S_ii'
GPGPU-Sim uArch: Shader 20 bind to kernel 1 '_Z22bpnn_layerforward_CUDAPfS_S_S_ii'
GPGPU-Sim uArch: Shader 22 bind to kernel 1 '_Z22bpnn_layerforward_CUDAPfS_S_S_ii'
GPGPU-Sim uArch: Shader 26 bind to kernel 1 '_Z22bpnn_layerforward_CUDAPfS_S_S_ii'
GPGPU-Sim uArch: Shader 13 bind to kernel 1 '_Z22bpnn_layerforward_CUDAPfS_S_S_ii'
GPGPU-Sim uArch: Shader 14 bind to kernel 1 '_Z22bpnn_layerforward_CUDAPfS_S_S_ii'
GPGPU-Sim uArch: Shader 15 bind to kernel 1 '_Z22bpnn_layerforward_CUDAPfS_S_S_ii'
GPGPU-Sim uArch: Shader 20 bind to kernel 1 '_Z22bpnn_layerforward_CUDAPfS_S_S_ii'
GPGPU-Sim uArch: Shader 22 bind to kernel 1 '_Z22bpnn_layerforward_CUDAPfS_S_S_ii'
GPGPU-Sim uArch: Shader 9 bind to kernel 1 '_Z22bpnn_layerforward_CUDAPfS_S_S_ii'
GPGPU-Sim uArch: Shader 2 bind to kernel 1 '_Z22bpnn_layerforward_CUDAPfS_S_S_ii'
GPGPU-Sim uArch: Shader 19 bind to kernel 1 '_Z22bpnn_layerforward_CUDAPfS_S_S_ii'
GPGPU-Sim uArch: Shader 23 bind to kernel 1 '_Z22bpnn_layerforward_CUDAPfS_S_S_ii'
GPGPU-Sim uArch: Shader 20 bind to kernel 1 '_Z22bpnn_layerforward_CUDAPfS_S_S_ii'
GPGPU-Sim uArch: Shader 23 bind to kernel 1 '_Z22bpnn_layerforward_CUDAPfS_S_S_ii'
GPGPU-Sim uArch: Shader 24 bind to kernel 1 '_Z22bpnn_layerforward_CUDAPfS_S_S_ii'
GPGPU-Sim uArch: Shader 25 bind to kernel 1 '_Z22bpnn_layerforward_CUDAPfS_S_S_ii'
GPGPU-Sim uArch: Shader 0 bind to kernel 1 '_Z22bpnn_layerforward_CUDAPfS_S_S_ii'
GPGPU-Sim uArch: Shader 1 bind to kernel 1 '_Z22bpnn_layerforward_CUDAPfS_S_S_ii'
GPGPU-Sim uArch: Shader 3 bind to kernel 1 '_Z22bpnn_layerforward_CUDAPfS_S_S_ii'
GPGPU-Sim uArch: Shader 4 bind to kernel 1 '_Z22bpnn_layerforward_CUDAPfS_S_S_ii'
GPGPU-Sim uArch: Shader 9 bind to kernel 1 '_Z22bpnn_layerforward_CUDAPfS_S_S_ii'
GPGPU-Sim uArch: Shader 10 bind to kernel 1 '_Z22bpnn_layerforward_CUDAPfS_S_S_ii'
GPGPU-Sim uArch: Shader 13 bind to kernel 1 '_Z22bpnn_layerforward_CUDAPfS_S_S_ii'
GPGPU-Sim uArch: Shader 15 bind to kernel 1 '_Z22bpnn_layerforward_CUDAPfS_S_S_ii'
GPGPU-Sim uArch: Shader 16 bind to kernel 1 '_Z22bpnn_layerforward_CUDAPfS_S_S_ii'
GPGPU-Sim uArch: Shader 17 bind to kernel 1 '_Z22bpnn_layerforward_CUDAPfS_S_S_ii'
GPGPU-Sim uArch: Shader 18 bind to kernel 1 '_Z22bpnn_layerforward_CUDAPfS_S_S_ii'
GPGPU-Sim uArch: Shader 27 bind to kernel 1 '_Z22bpnn_layerforward_CUDAPfS_S_S_ii'
Destroy streams for kernel 1: size 0
kernel_name = _Z22bpnn_layerforward_CUDAPfS_S_S_ii 
kernel_launch_uid = 1 
gpu_sim_cycle = 1391553
gpu_sim_insn = 224892096
gpu_ipc =     161.6123
gpu_tot_sim_cycle = 1613703
gpu_tot_sim_insn = 224892096
gpu_tot_ipc =     139.3640
gpu_tot_issued_cta = 8191
max_total_param_size = 0
gpu_stall_dramfull = 69538
gpu_stall_icnt2sh    = 280665
partiton_reqs_in_parallel = 30544628
partiton_reqs_in_parallel_total    = 0
partiton_level_parallism =      21.9500
partiton_level_parallism_total  =      18.9283
partiton_reqs_in_parallel_util = 30544628
partiton_reqs_in_parallel_util_total    = 0
gpu_sim_cycle_parition_util = 1389738
gpu_tot_sim_cycle_parition_util    = 0
partiton_level_parallism_util =      21.9787
partiton_level_parallism_util_total  =      21.9787
partiton_replys_in_parallel = 397459
partiton_replys_in_parallel_total    = 0
L2_BW  =      27.0725 GB/Sec
L2_BW_total  =      23.3455 GB/Sec
gpu_total_sim_rate=119814

========= Core cache stats =========
L1I_cache:
	L1I_total_cache_accesses = 4677061
	L1I_total_cache_misses = 3489
	L1I_total_cache_miss_rate = 0.0007
	L1I_total_cache_pending_hits = 0
	L1I_total_cache_reservation_fails = 6846
L1D_cache:
	L1D_cache_core[0]: Access = 0, Miss = 0, Miss_rate = -nan, Pending_hits = 0, Reservation_fails = 0
	L1D_cache_core[1]: Access = 0, Miss = 0, Miss_rate = -nan, Pending_hits = 0, Reservation_fails = 0
	L1D_cache_core[2]: Access = 0, Miss = 0, Miss_rate = -nan, Pending_hits = 0, Reservation_fails = 0
	L1D_cache_core[3]: Access = 0, Miss = 0, Miss_rate = -nan, Pending_hits = 0, Reservation_fails = 0
	L1D_cache_core[4]: Access = 0, Miss = 0, Miss_rate = -nan, Pending_hits = 0, Reservation_fails = 0
	L1D_cache_core[5]: Access = 0, Miss = 0, Miss_rate = -nan, Pending_hits = 0, Reservation_fails = 0
	L1D_cache_core[6]: Access = 0, Miss = 0, Miss_rate = -nan, Pending_hits = 0, Reservation_fails = 0
	L1D_cache_core[7]: Access = 0, Miss = 0, Miss_rate = -nan, Pending_hits = 0, Reservation_fails = 0
	L1D_cache_core[8]: Access = 0, Miss = 0, Miss_rate = -nan, Pending_hits = 0, Reservation_fails = 0
	L1D_cache_core[9]: Access = 0, Miss = 0, Miss_rate = -nan, Pending_hits = 0, Reservation_fails = 0
	L1D_cache_core[10]: Access = 0, Miss = 0, Miss_rate = -nan, Pending_hits = 0, Reservation_fails = 0
	L1D_cache_core[11]: Access = 0, Miss = 0, Miss_rate = -nan, Pending_hits = 0, Reservation_fails = 0
	L1D_cache_core[12]: Access = 0, Miss = 0, Miss_rate = -nan, Pending_hits = 0, Reservation_fails = 0
	L1D_cache_core[13]: Access = 0, Miss = 0, Miss_rate = -nan, Pending_hits = 0, Reservation_fails = 0
	L1D_cache_core[14]: Access = 0, Miss = 0, Miss_rate = -nan, Pending_hits = 0, Reservation_fails = 0
	L1D_cache_core[15]: Access = 0, Miss = 0, Miss_rate = -nan, Pending_hits = 0, Reservation_fails = 0
	L1D_cache_core[16]: Access = 0, Miss = 0, Miss_rate = -nan, Pending_hits = 0, Reservation_fails = 0
	L1D_cache_core[17]: Access = 0, Miss = 0, Miss_rate = -nan, Pending_hits = 0, Reservation_fails = 0
	L1D_cache_core[18]: Access = 0, Miss = 0, Miss_rate = -nan, Pending_hits = 0, Reservation_fails = 0
	L1D_cache_core[19]: Access = 0, Miss = 0, Miss_rate = -nan, Pending_hits = 0, Reservation_fails = 0
	L1D_cache_core[20]: Access = 0, Miss = 0, Miss_rate = -nan, Pending_hits = 0, Reservation_fails = 0
	L1D_cache_core[21]: Access = 0, Miss = 0, Miss_rate = -nan, Pending_hits = 0, Reservation_fails = 0
	L1D_cache_core[22]: Access = 0, Miss = 0, Miss_rate = -nan, Pending_hits = 0, Reservation_fails = 0
	L1D_cache_core[23]: Access = 0, Miss = 0, Miss_rate = -nan, Pending_hits = 0, Reservation_fails = 0
	L1D_cache_core[24]: Access = 0, Miss = 0, Miss_rate = -nan, Pending_hits = 0, Reservation_fails = 0
	L1D_cache_core[25]: Access = 0, Miss = 0, Miss_rate = -nan, Pending_hits = 0, Reservation_fails = 0
	L1D_cache_core[26]: Access = 0, Miss = 0, Miss_rate = -nan, Pending_hits = 0, Reservation_fails = 0
	L1D_cache_core[27]: Access = 0, Miss = 0, Miss_rate = -nan, Pending_hits = 0, Reservation_fails = 0
	L1D_total_cache_accesses = 0
	L1D_total_cache_misses = 0
	L1D_total_cache_pending_hits = 0
	L1D_total_cache_reservation_fails = 0
	L1D_cache_data_port_util = 0.000
	L1D_cache_fill_port_util = 0.000
L1C_cache:
	L1C_total_cache_accesses = 262112
	L1C_total_cache_misses = 1792
	L1C_total_cache_miss_rate = 0.0068
	L1C_total_cache_pending_hits = 0
	L1C_total_cache_reservation_fails = 4886
L1T_cache:
	L1T_total_cache_accesses = 0
	L1T_total_cache_misses = 0
	L1T_total_cache_pending_hits = 0
	L1T_total_cache_reservation_fails = 0

Total_core_cache_stats:
	Total_core_cache_stats_breakdown[GLOBAL_ACC_R][HIT] = 0
	Total_core_cache_stats_breakdown[GLOBAL_ACC_R][HIT_RESERVED] = 0
	Total_core_cache_stats_breakdown[GLOBAL_ACC_R][MISS] = 0
	Total_core_cache_stats_breakdown[GLOBAL_ACC_R][RESERVATION_FAIL] = 0
	Total_core_cache_stats_breakdown[LOCAL_ACC_R][HIT] = 0
	Total_core_cache_stats_breakdown[LOCAL_ACC_R][HIT_RESERVED] = 0
	Total_core_cache_stats_breakdown[LOCAL_ACC_R][MISS] = 0
	Total_core_cache_stats_breakdown[LOCAL_ACC_R][RESERVATION_FAIL] = 0
	Total_core_cache_stats_breakdown[CONST_ACC_R][HIT] = 260320
	Total_core_cache_stats_breakdown[CONST_ACC_R][HIT_RESERVED] = 0
	Total_core_cache_stats_breakdown[CONST_ACC_R][MISS] = 1792
	Total_core_cache_stats_breakdown[CONST_ACC_R][RESERVATION_FAIL] = 4886
	Total_core_cache_stats_breakdown[TEXTURE_ACC_R][HIT] = 0
	Total_core_cache_stats_breakdown[TEXTURE_ACC_R][HIT_RESERVED] = 0
	Total_core_cache_stats_breakdown[TEXTURE_ACC_R][MISS] = 0
	Total_core_cache_stats_breakdown[TEXTURE_ACC_R][RESERVATION_FAIL] = 0
	Total_core_cache_stats_breakdown[GLOBAL_ACC_W][HIT] = 0
	Total_core_cache_stats_breakdown[GLOBAL_ACC_W][HIT_RESERVED] = 0
	Total_core_cache_stats_breakdown[GLOBAL_ACC_W][MISS] = 0
	Total_core_cache_stats_breakdown[GLOBAL_ACC_W][RESERVATION_FAIL] = 0
	Total_core_cache_stats_breakdown[LOCAL_ACC_W][HIT] = 0
	Total_core_cache_stats_breakdown[LOCAL_ACC_W][HIT_RESERVED] = 0
	Total_core_cache_stats_breakdown[LOCAL_ACC_W][MISS] = 0
	Total_core_cache_stats_breakdown[LOCAL_ACC_W][RESERVATION_FAIL] = 0
	Total_core_cache_stats_breakdown[L1_WRBK_ACC][HIT] = 0
	Total_core_cache_stats_breakdown[L1_WRBK_ACC][HIT_RESERVED] = 0
	Total_core_cache_stats_breakdown[L1_WRBK_ACC][MISS] = 0
	Total_core_cache_stats_breakdown[L1_WRBK_ACC][RESERVATION_FAIL] = 0
	Total_core_cache_stats_breakdown[L2_WRBK_ACC][HIT] = 0
	Total_core_cache_stats_breakdown[L2_WRBK_ACC][HIT_RESERVED] = 0
	Total_core_cache_stats_breakdown[L2_WRBK_ACC][MISS] = 0
	Total_core_cache_stats_breakdown[L2_WRBK_ACC][RESERVATION_FAIL] = 0
	Total_core_cache_stats_breakdown[INST_ACC_R][HIT] = 4673572
	Total_core_cache_stats_breakdown[INST_ACC_R][HIT_RESERVED] = 0
	Total_core_cache_stats_breakdown[INST_ACC_R][MISS] = 3489
	Total_core_cache_stats_breakdown[INST_ACC_R][RESERVATION_FAIL] = 6846
	Total_core_cache_stats_breakdown[L1_WR_ALLOC_R][HIT] = 0
	Total_core_cache_stats_breakdown[L1_WR_ALLOC_R][HIT_RESERVED] = 0
	Total_core_cache_stats_breakdown[L1_WR_ALLOC_R][MISS] = 0
	Total_core_cache_stats_breakdown[L1_WR_ALLOC_R][RESERVATION_FAIL] = 0
	Total_core_cache_stats_breakdown[L2_WR_ALLOC_R][HIT] = 0
	Total_core_cache_stats_breakdown[L2_WR_ALLOC_R][HIT_RESERVED] = 0
	Total_core_cache_stats_breakdown[L2_WR_ALLOC_R][MISS] = 0
	Total_core_cache_stats_breakdown[L2_WR_ALLOC_R][RESERVATION_FAIL] = 0
	Total_core_cache_stats_breakdown[CONST_ACC_R][TOTAL_ACCESS] = 262112
	Total_core_cache_stats_breakdown[INST_ACC_R][TOTAL_ACCESS] = 4677061
Shader 0 warp_id issue ditsribution:
warp_id:
0, 1, 2, 3, 4, 5, 6, 7, 8, 9, 10, 11, 12, 13, 14, 15, 16, 17, 18, 19, 20, 21, 22, 23, 24, 25, 26, 27, 28, 29, 30, 31, 32, 33, 34, 35, 36, 37, 38, 39, 40, 41, 42, 43, 44, 45, 46, 47, 48, 49, 50, 51, 52, 53, 54, 55, 56, 57, 58, 59, 60, 61, 62, 63, 
distro:
7216, 5722, 6217, 5713, 6743, 5708, 6264, 5750, 7039, 5579, 6062, 5575, 6575, 5576, 6103, 5606, 6864, 5435, 5913, 5434, 6410, 5443, 5951, 5466, 6685, 5286, 5755, 5278, 6239, 5283, 5800, 5310, 6688, 5291, 5753, 5284, 6237, 5278, 5787, 5311, 6143, 4854, 5288, 4847, 5728, 4848, 5316, 4878, 5958, 4712, 5126, 4711, 5553, 4706, 5165, 4739, 5776, 4567, 4976, 4567, 5388, 4563, 5008, 4590, 
gpgpu_n_tot_thrd_icount = 284391520
gpgpu_n_tot_w_icount = 8887235
gpgpu_n_stall_shd_mem = 282012
gpgpu_n_mem_read_local = 0
gpgpu_n_mem_write_local = 0
gpgpu_n_mem_read_global = 200679
gpgpu_n_mem_write_global = 196584
gpgpu_n_mem_texture = 0
gpgpu_n_mem_const = 28
gpgpu_n_load_insn  = 2227952
gpgpu_n_store_insn = 2227952
gpgpu_n_shmem_insn = 16644112
gpgpu_n_tex_insn = 0
gpgpu_n_const_mem_insn = 0
gpgpu_n_param_mem_insn = 8387584
gpgpu_n_shmem_bkconflict = 0
gpgpu_n_cache_bkconflict = 0
gpgpu_n_intrawarp_mshr_merge = 0
gpgpu_n_cmem_portconflict = 4886
gpgpu_stall_shd_mem[c_mem][bk_conf] = 4886
gpgpu_stall_shd_mem[c_mem][mshr_rc] = 0
gpgpu_stall_shd_mem[c_mem][icnt_rc] = 0
gpgpu_stall_shd_mem[c_mem][data_port_stall] = 0
gpgpu_stall_shd_mem[t_mem][mshr_rc] = 0
gpgpu_stall_shd_mem[t_mem][icnt_rc] = 0
gpgpu_stall_shd_mem[t_mem][data_port_stall] = 0
gpgpu_stall_shd_mem[s_mem][bk_conf] = 0
gpgpu_stall_shd_mem[gl_mem][bk_conf] = 0
gpgpu_stall_shd_mem[gl_mem][coal_stall] = 266492
gpgpu_stall_shd_mem[gl_mem][data_port_stall] = 0
gpgpu_stall_shd_mem[g_mem_ld][mshr_rc] = 0
gpgpu_stall_shd_mem[g_mem_ld][icnt_rc] = 10634
gpgpu_stall_shd_mem[g_mem_ld][wb_icnt_rc] = 0
gpgpu_stall_shd_mem[g_mem_ld][wb_rsrv_fail] = 0
gpgpu_stall_shd_mem[g_mem_st][mshr_rc] = 0
gpgpu_stall_shd_mem[g_mem_st][icnt_rc] = 0
gpgpu_stall_shd_mem[g_mem_st][wb_icnt_rc] = 0
gpgpu_stall_shd_mem[g_mem_st][wb_rsrv_fail] = 0
gpgpu_stall_shd_mem[l_mem_ld][mshr_rc] = 0
gpgpu_stall_shd_mem[l_mem_ld][icnt_rc] = 0
gpgpu_stall_shd_mem[l_mem_ld][wb_icnt_rc] = 0
gpgpu_stall_shd_mem[l_mem_ld][wb_rsrv_fail] = 0
gpgpu_stall_shd_mem[l_mem_st][mshr_rc] = 0
gpgpu_stall_shd_mem[l_mem_st][icnt_rc] = 0
gpgpu_stall_shd_mem[l_mem_ld][wb_icnt_rc] = 0
gpgpu_stall_shd_mem[l_mem_ld][wb_rsrv_fail] = 0
gpu_reg_bank_conflict_stalls = 0
Warp Occupancy Distribution:
Stall:360644	W0_Idle:10006026	W0_Scoreboard:59848439	W1:0	W2:1048448	W3:0	W4:0	W5:0	W6:0	W7:0	W8:0	W9:0	W10:0	W11:0	W12:0	W13:0	W14:0	W15:0	W16:1351515	W17:0	W18:0	W19:0	W20:0	W21:0	W22:0	W23:0	W24:0	W25:0	W26:0	W27:0	W28:0	W29:0	W30:0	W31:0	W32:6487272
traffic_breakdown_coretomem[CONST_ACC_R] = 224 {8:28,}
traffic_breakdown_coretomem[GLOBAL_ACC_R] = 1605432 {8:200679,}
traffic_breakdown_coretomem[GLOBAL_ACC_W] = 15202464 {40:98293,72:32763,136:65528,}
traffic_breakdown_coretomem[INST_ACC_R] = 1344 {8:168,}
traffic_breakdown_memtocore[CONST_ACC_R] = 2016 {72:28,}
traffic_breakdown_memtocore[GLOBAL_ACC_R] = 16021592 {40:90101,72:40954,136:69624,}
traffic_breakdown_memtocore[GLOBAL_ACC_W] = 1572672 {8:196584,}
traffic_breakdown_memtocore[INST_ACC_R] = 22848 {136:168,}
maxmrqlatency = 976 
maxdqlatency = 0 
maxmflatency = 126650 
averagemflatency = 3825 
max_icnt2mem_latency = 126392 
max_icnt2sh_latency = 1613702 
mrq_lat_table:51814 	4175 	7163 	19354 	33258 	20959 	14506 	13400 	13977 	1865 	0 	0 	0 	0 	0 	0 	0 	0 	0 	0 	0 	0 	0 	0 	0 	0 	0 	0 	0 	0 	0 	0 	
dq_lat_table:0 	0 	0 	0 	0 	0 	0 	0 	0 	0 	0 	0 	0 	0 	0 	0 	0 	0 	0 	0 	0 	0 	0 	0 	0 	0 	0 	0 	0 	0 	0 	0 	
mf_lat_table:0 	0 	0 	0 	0 	0 	0 	186294 	150080 	17965 	3855 	3086 	360 	6170 	10068 	16434 	2979 	0 	0 	0 	0 	0 	0 	0 	0 	0 	0 	0 	0 	0 	0 	0 	
icnt2mem_lat_table:0 	0 	72748 	120382 	8796 	226 	148436 	6877 	336 	114 	447 	3086 	360 	6282 	12835 	13555 	2979 	0 	0 	0 	0 	0 	0 	0 	
icnt2sh_lat_table:0 	0 	59171 	96774 	41532 	3182 	48 	0 	0 	0 	0 	0 	0 	0 	0 	0 	0 	2160 	22848 	79416 	92160 	0 	0 	0 	
mf_lat_pw_table:0 	0 	0 	0 	0 	0 	0 	259 	128 	17 	2 	18 	3 	17 	28 	19 	6 	0 	0 	0 	0 	0 	0 	0 	0 	0 	0 	0 	0 	0 	0 	0 	
maximum concurrent accesses to same row:
dram[0]:        79        77        98        87        26        33        43        51        51        52        48        44        85        85        60        76 
dram[1]:        77        85        86        85        27        32        25        26        55        52        30        72        85        85        69        61 
dram[2]:        86        80        86        78        35        51        34        43        68        60        69        44        85        85        69        69 
dram[3]:        76        74        78        75        35        51        26        33        68        60        48        43        85        85        77        69 
dram[4]:        77        68        99        72        34        43        26        42        59        68        45        43        85        85        66        60 
dram[5]:        69        70        90        79        26        41        28        34        60        60        51        33        85        85        69        69 
dram[6]:        77        69        87        68        27        26        33        34        68        50        51        39        85        85        68        77 
dram[7]:        68        60        90        78        27        26        34        41        60        68        45        43        85        85        74        61 
dram[8]:        72        77        94        86        35        27        41        42        60        60        37        40       102       102        79        94 
dram[9]:        68        61        81        78        42        35        34        43        51        43        54        43        85        85        86        69 
dram[10]:        77        69        78        86        42        31        36        51        52        43        51        38        85        85        69        85 
maximum service time to same row:
dram[0]:    134538    134539    131500    131501    131641    131587    150723    150719    150386    150386    149774    149767    149521    149524    145684    145616 
dram[1]:    134537    134537    131481    131460    131644    131582    150703    150703    150390    150396    149759    149758    149528    149523    145304    145609 
dram[2]:    134532    134531    131462    131465    131630    131565    150700    150717    150396    150392    149759    149759    149474    149468    145692    145682 
dram[3]:    134536    134562    131466    131458    131625    131562    150714    150700    150391    150393    149761    149761    149485    149498    145681    145605 
dram[4]:    134562    134537    131457    131456    131618    131560    150705    150688    150422    150404    149761    149650    149499    149478    128786    130630 
dram[5]:    134517    134539    131439    131454    131665    131612    150715    150717    150403    150405    149649    149669    149477    149491    130508    128833 
dram[6]:    134538    134561    131455    131483    131666    131604    150717    150710    150379    150378    149668    149638    149491    149532    130493    128851 
dram[7]:    146362    146212    131484    131494    131656    131592    150707    150706    150372    150372    149666    149665    149532    149460    128842    130573 
dram[8]:    146322    146125    131495    131491    131630    131565    150707    150708    150412    150410    149680    149679    149459    149458    128742    130515 
dram[9]:    146202    146335    131511    131503    131666    131608    150700    150695    150409    150413    149686    149697    149513    149536    128665    130747 
dram[10]:    146188    146116    131503    131503    131706    131649    150678    150672    150415    150415    149679    149764    149546    149539    128574    130677 
average row accesses per activate:
dram[0]:  4.916667  5.035088  5.663507  5.786070  4.055555  4.371560  4.299066  4.836735  4.584158  4.643216  4.089686  4.174888  5.561497  5.607527  5.951872  6.021276 
dram[1]:  4.934210  5.039301  5.660287  5.625592  4.060086  4.279279  4.150000  4.352113  4.512077  4.633166  4.091703  4.121076  5.465609  5.545946  5.921875  5.836066 
dram[2]:  5.100437  5.000000  5.292793  5.629268  4.254464  4.649038  4.240909  4.500000  4.681592  4.803109  4.183036  3.946903  5.419355  5.677778  5.879581  6.054348 
dram[3]:  4.809322  5.131222  5.566503  5.712871  4.198238  4.457944  4.118182  4.386793  4.847716  5.000000  4.129464  4.303738  5.711957  5.750000  5.715000  5.554455 
dram[4]:  5.276786  5.258065  5.637255  5.376744  4.256757  4.500000  4.521739  4.645631  4.855670  4.989474  3.960699  4.052402  5.575269  5.773481  5.500000  5.386138 
dram[5]:  4.831169  5.315069  5.673171  5.740000  4.226087  4.469768  4.275701  4.623763  4.360189  4.678392  3.982833  4.013274  5.632432  5.444445  5.572139  5.787565 
dram[6]:  4.750000  4.750000  5.396226  5.478049  3.915612  4.276498  4.259259  4.681592  4.578432  4.595000  4.105263  4.490291  5.813560  5.899441  5.575000  5.682292 
dram[7]:  4.933333  4.896104  5.708738  5.851282  4.143478  4.301802  4.262673  4.556098  4.729592  5.000000  4.406542  4.331754  5.328043  5.762712  5.251185  5.453202 
dram[8]:  5.056277  4.814655  5.767327  6.010309  4.343892  4.341014  4.593137  4.693878  4.619512  4.901042  4.139013  4.339535  5.515790  6.011364  5.454545  5.788360 
dram[9]:  5.000000  5.088889  5.944162  6.372973  4.349557  4.132159  4.447619  4.425121  4.963351  5.124324  4.239819  4.085202  5.988700  5.966480  5.467980  6.031414 
dram[10]:  5.030837  4.898678  5.887179  5.806763  4.160000  4.208145  4.585714  4.669951  4.847716  4.862245  4.115556  4.075555  5.921788  5.937500  5.490196  5.722222 
average row locality = 180471/36598 = 4.931171
number of total memory accesses made:
dram[0]:         0         0         0         0         0         0         0         0         0         0         0         0         0         0         0         0 
dram[1]:         0         0         0         0         0         0         0         0         0         0         0         0         0         0         0         0 
dram[2]:         0         0         0         0         0         0         0         0         0         0         0         0         0         0         0         0 
dram[3]:         0         0         0         0         0         0         0         0         0         0         0         0         0         0         0         0 
dram[4]:         0         0         0         0         0         0         0         0         0         0         0         0         0         0         0         0 
dram[5]:         0         0         0         0         0         0         0         0         0         0         0         0         0         0         0         0 
dram[6]:         0         0         0         0         0         0         0         0         0         0         0         0         0         0         0         0 
dram[7]:         0         0         0         0         0         0         0         0         0         0         0         0         0         0         0         0 
dram[8]:         0         0         0         0         0         0         0         0         0         0         0         0         0         0         0         0 
dram[9]:         0         0         0         0         0         0         0         0         0         0         0         0         0         0         0         0 
dram[10]:         0         0         0         0         0         0         0         0         0         0         0         0         0         0         0         0 
total accesses: 0
min_bank_accesses = 0!
min_chip_accesses = 0!
number of total read accesses:
dram[0]:       453       452       456       456       435       435       432       432       432       432       434       434       448       448       448       448 
dram[1]:       452       452       456       456       435       435       432       432       432       432       435       435       448       448       448       448 
dram[2]:       452       452       456       456       435       435       432       432       432       432       435       435       448       448       448       448 
dram[3]:       452       452       455       455       435       435       432       432       432       432       435       435       448       448       448       448 
dram[4]:       452       452       455       455       435       435       432       432       432       432       435       435       448       447       449       449 
dram[5]:       452       452       455       455       435       435       432       432       432       432       435       435       447       447       449       449 
dram[6]:       452       452       455       455       435       435       432       432       432       432       435       435       447       447       449       449 
dram[7]:       453       453       455       455       435       435       432       432       432       432       435       435       447       447       448       448 
dram[8]:       453       453       455       455       435       435       432       432       432       432       435       435       448       448       448       448 
dram[9]:       453       453       455       455       435       435       432       432       432       432       435       435       448       448       448       448 
dram[10]:       453       453       455       455       434       434       432       432       432       432       435       435       448       448       448       448 
total reads: 77824
bank skew: 456/432 = 1.06
chip skew: 7076/7074 = 1.00
number of total write accesses:
dram[0]:       668       696       739       707       514       518       488       516       494       492       478       497       592       595       665       684 
dram[1]:       673       702       727       731       511       515       481       495       502       490       502       484       585       578       689       620 
dram[2]:       716       698       719       698       518       532       501       495       509       495       502       457       560       574       675       666 
dram[3]:       683       682       675       699       518       519       474       498       523       523       490       486       603       610       695       674 
dram[4]:       730       689       695       701       510       519       504       525       510       516       472       493       589       598       651       639 
dram[5]:       664       712       708       693       537       526       483       502       488       499       493       472       595       582       671       668 
dram[6]:       707       688       689       668       493       493       488       509       502       487       501       490       582       609       666       642 
dram[7]:       731       678       721       686       518       520       493       502       495       523       508       479       560       573       660       659 
dram[8]:       715       664       710       711       525       507       505       488       515       509       488       498       600       610       632       646 
dram[9]:       682       692       716       724       548       503       502       484       516       516       502       476       612       620       662       704 
dram[10]:       689       659       693       747       502       496       531       516       523       521       491       482       612       597       672       685 
total reads: 102647
bank skew: 747/457 = 1.63
chip skew: 9459/9214 = 1.03
average mf latency per bank:
dram[0]:       8468      8128      8153      8470      7567      7493      8991      8772     11509     11600      9208      9066      7497      7682      5682      5370
dram[1]:       8421      8272      8403      8502      7608      7516      9203      9045     11298     11501      8867      8967      7698      7593      5434      5799
dram[2]:       8260      8353      8429      8609      7391      7354      9039      8974     11254     11436      8833      9418      7390      7251      5533      5478
dram[3]:       8302      8364      9079      8894      7408      7440      9174      8981     11311     11153      9199      9025      7220      7208      5136      5342
dram[4]:       8046      8453      9027      8868      7620      7481      8931      8744     11327     10723      9141      8885      7334      7169      7376      7478
dram[5]:       8817      8374      8806      8909      7409      7432      8981      8872     11049     10909      8991      9346      7111      7275      7272      7276
dram[6]:       8373      8496      8920      9212      7682      7674      9034      8906     10769     10935      9023      9094      7318      7247      7388      7461
dram[7]:       8360      8748      8688      8816      7415      7421      9310      9080     10691     10418      8754      9090      7637      7624      7364      7365
dram[8]:       8351      8722      8670      8670      7291      7503      9092      9174     10485     10597      9127      8890      7936      7695      7558      7464
dram[9]:       8551      8524      8687      8459      7118      7454      9062      9289     11178     11026      8877      9068      7612      7500      7205      7060
dram[10]:       8629      8812      8695      8072      7506      7480      8649      8779     10986     11029      9178      9330      7555      7534      7236      6275
maximum mf latency per bank:
dram[0]:     123947    123985    123866    123834     63171     63198    123868    123634    123367    123399    124338    124390    123475    123492    123269    123264
dram[1]:     123933    124000    123863    123837     63186     63199    123624    123632    123374    123378    124347    124280    123491    123487    123231    123258
dram[2]:     123931    124029    123848    123882     63179     63198    123694    123707    123429    123575    124240    124283    123499    123504    123173    123219
dram[3]:     123958    124009    123838    123869     63172     63191    123681    123676    123540    123577    124252    124259    123500    123507    123143    123186
dram[4]:     123940    124022    123806    123844     63184     63205    123708    123700    123437    123456    124241    124255    123489    123494    126650    126565
dram[5]:     123990    124074    123777    123896     63179     63192    123705    123711    123419    123454    124209    124224    123500    123455    126604    126584
dram[6]:     123996    124081    123858    123898     63171     63197    123716    123711    123426    123467    124197    124191    123315    123323    126595    126565
dram[7]:     123993    124064    123866    123898     63173     63187    123889    123902    123452    123467    124162    124193    123341    123388    126481    126471
dram[8]:     123988    124064    123839    123890     63178     63189    123893    123903    123439    123467    124172    124202    123379    123359    126471    126414
dram[9]:     123961    124040    123879    123893     63188     63207    123888    123911    123443    123489    124179    124170    123368    123410    126374    126381
dram[10]:     123968    124021    123879    123887     63200     63217    123856    123907    123438    123459    124352    124400    123409    123446    126308    126236
Memory Partition 0: 
Cache L2_bank_000:
MSHR contents

Cache L2_bank_001:
MSHR contents

In Dram Latency Queue (total = 0): 
DRAM[0]: 16 bks, busW=4 BL=8 CL=12, tRRD=2 tCCD=6, tRCD=12 tRAS=28 tRP=12 tRC=40
n_cmd=2583909 n_nop=2525824 n_act=3326 n_pre=3310 n_req=16418 n_rd=28300 n_write=23149 bw_util=0.03982
n_activity=158584 dram_eff=0.6489
bk0: 1812a 2557673i bk1: 1808a 2554891i bk2: 1824a 2556359i bk3: 1824a 2555340i bk4: 1740a 2557855i bk5: 1740a 2555706i bk6: 1728a 2558045i bk7: 1728a 2558462i bk8: 1728a 2559140i bk9: 1728a 2557512i bk10: 1736a 2556931i bk11: 1736a 2557121i bk12: 1792a 2557710i bk13: 1792a 2555869i bk14: 1792a 2557218i bk15: 1792a 2554930i 
dram_util_bins: 0 0 0 0 0 0 0 0 0 0
dram_eff_bins: 0 0 0 0 0 0 0 0 0 0
mrqq: max=64 avg=0.753082
Memory Partition 1: 
Cache L2_bank_002:
MSHR contents

Cache L2_bank_003:
MSHR contents

In Dram Latency Queue (total = 0): 
DRAM[1]: 16 bks, busW=4 BL=8 CL=12, tRRD=2 tCCD=6, tRCD=12 tRAS=28 tRP=12 tRC=40
n_cmd=2583909 n_nop=2525759 n_act=3372 n_pre=3356 n_req=16361 n_rd=28304 n_write=23118 bw_util=0.0398
n_activity=159340 dram_eff=0.6454
bk0: 1808a 2557789i bk1: 1808a 2556308i bk2: 1824a 2556128i bk3: 1824a 2555001i bk4: 1740a 2557604i bk5: 1740a 2555747i bk6: 1728a 2558564i bk7: 1728a 2557299i bk8: 1728a 2559772i bk9: 1728a 2557805i bk10: 1740a 2557415i bk11: 1740a 2556346i bk12: 1792a 2555944i bk13: 1792a 2555500i bk14: 1792a 2557994i bk15: 1792a 2556896i 
dram_util_bins: 0 0 0 0 0 0 0 0 0 0
dram_eff_bins: 0 0 0 0 0 0 0 0 0 0
mrqq: max=64 avg=0.762616
Memory Partition 2: 
Cache L2_bank_004:
MSHR contents

Cache L2_bank_005:
MSHR contents

In Dram Latency Queue (total = 0): 
DRAM[2]: 16 bks, busW=4 BL=8 CL=12, tRRD=2 tCCD=6, tRCD=12 tRAS=28 tRP=12 tRC=40
n_cmd=2583909 n_nop=2525842 n_act=3329 n_pre=3313 n_req=16391 n_rd=28304 n_write=23121 bw_util=0.0398
n_activity=158623 dram_eff=0.6484
bk0: 1808a 2556630i bk1: 1808a 2555190i bk2: 1824a 2556152i bk3: 1824a 2555925i bk4: 1740a 2557408i bk5: 1740a 2556341i bk6: 1728a 2558007i bk7: 1728a 2556480i bk8: 1728a 2559639i bk9: 1728a 2558291i bk10: 1740a 2558515i bk11: 1740a 2556637i bk12: 1792a 2557579i bk13: 1792a 2557219i bk14: 1792a 2556951i bk15: 1792a 2555895i 
dram_util_bins: 0 0 0 0 0 0 0 0 0 0
dram_eff_bins: 0 0 0 0 0 0 0 0 0 0
mrqq: max=64 avg=0.758037
Memory Partition 3: 
Cache L2_bank_006:
MSHR contents

Cache L2_bank_007:
MSHR contents

In Dram Latency Queue (total = 0): 
DRAM[3]: 16 bks, busW=4 BL=8 CL=12, tRRD=2 tCCD=6, tRCD=12 tRAS=28 tRP=12 tRC=40
n_cmd=2583909 n_nop=2525839 n_act=3331 n_pre=3315 n_req=16426 n_rd=28296 n_write=23128 bw_util=0.0398
n_activity=159351 dram_eff=0.6454
bk0: 1808a 2556992i bk1: 1808a 2556586i bk2: 1820a 2557084i bk3: 1820a 2555949i bk4: 1740a 2557196i bk5: 1740a 2556552i bk6: 1728a 2558857i bk7: 1728a 2557589i bk8: 1728a 2560538i bk9: 1728a 2558685i bk10: 1740a 2559925i bk11: 1740a 2558867i bk12: 1792a 2558227i bk13: 1792a 2555466i bk14: 1792a 2556952i bk15: 1792a 2555808i 
dram_util_bins: 0 0 0 0 0 0 0 0 0 0
dram_eff_bins: 0 0 0 0 0 0 0 0 0 0
mrqq: max=64 avg=0.762536
Memory Partition 4: 
Cache L2_bank_008:
MSHR contents

Cache L2_bank_009:
MSHR contents

In Dram Latency Queue (total = 0): 
DRAM[4]: 16 bks, busW=4 BL=8 CL=12, tRRD=2 tCCD=6, tRCD=12 tRAS=28 tRP=12 tRC=40
n_cmd=2583909 n_nop=2525857 n_act=3318 n_pre=3302 n_req=16416 n_rd=28300 n_write=23132 bw_util=0.03981
n_activity=156711 dram_eff=0.6564
bk0: 1808a 2558178i bk1: 1808a 2556928i bk2: 1820a 2556114i bk3: 1820a 2554130i bk4: 1740a 2556991i bk5: 1740a 2555830i bk6: 1728a 2558011i bk7: 1728a 2558401i bk8: 1728a 2560026i bk9: 1728a 2558269i bk10: 1740a 2560071i bk11: 1740a 2557411i bk12: 1792a 2558464i bk13: 1788a 2556715i bk14: 1796a 2556548i bk15: 1796a 2554981i 
dram_util_bins: 0 0 0 0 0 0 0 0 0 0
dram_eff_bins: 0 0 0 0 0 0 0 0 0 0
mrqq: max=64 avg=0.767639
Memory Partition 5: 
Cache L2_bank_010:
MSHR contents

Cache L2_bank_011:
MSHR contents

In Dram Latency Queue (total = 0): 
DRAM[5]: 16 bks, busW=4 BL=8 CL=12, tRRD=2 tCCD=6, tRCD=12 tRAS=28 tRP=12 tRC=40
n_cmd=2583909 n_nop=2525800 n_act=3353 n_pre=3337 n_req=16367 n_rd=28296 n_write=23123 bw_util=0.0398
n_activity=157522 dram_eff=0.6528
bk0: 1808a 2556823i bk1: 1808a 2555801i bk2: 1820a 2556419i bk3: 1820a 2554088i bk4: 1740a 2556933i bk5: 1740a 2555956i bk6: 1728a 2558281i bk7: 1728a 2558298i bk8: 1728a 2559246i bk9: 1728a 2558070i bk10: 1740a 2558342i bk11: 1740a 2556381i bk12: 1788a 2558102i bk13: 1788a 2557347i bk14: 1796a 2556253i bk15: 1796a 2554609i 
dram_util_bins: 0 0 0 0 0 0 0 0 0 0
dram_eff_bins: 0 0 0 0 0 0 0 0 0 0
mrqq: max=64 avg=0.77094
Memory Partition 6: 
Cache L2_bank_012:
MSHR contents

Cache L2_bank_013:
MSHR contents

In Dram Latency Queue (total = 0): 
DRAM[6]: 16 bks, busW=4 BL=8 CL=12, tRRD=2 tCCD=6, tRCD=12 tRAS=28 tRP=12 tRC=40
n_cmd=2583909 n_nop=2525845 n_act=3358 n_pre=3342 n_req=16288 n_rd=28296 n_write=23068 bw_util=0.03976
n_activity=157803 dram_eff=0.651
bk0: 1808a 2557239i bk1: 1808a 2556030i bk2: 1820a 2555836i bk3: 1820a 2554759i bk4: 1740a 2557909i bk5: 1740a 2556072i bk6: 1728a 2558875i bk7: 1728a 2558620i bk8: 1728a 2559468i bk9: 1728a 2558151i bk10: 1740a 2557720i bk11: 1740a 2557408i bk12: 1788a 2559337i bk13: 1788a 2557974i bk14: 1796a 2555797i bk15: 1796a 2555103i 
dram_util_bins: 0 0 0 0 0 0 0 0 0 0
dram_eff_bins: 0 0 0 0 0 0 0 0 0 0
mrqq: max=64 avg=0.769052
Memory Partition 7: 
Cache L2_bank_014:
MSHR contents

Cache L2_bank_015:
MSHR contents

In Dram Latency Queue (total = 0): 
DRAM[7]: 16 bks, busW=4 BL=8 CL=12, tRRD=2 tCCD=6, tRCD=12 tRAS=28 tRP=12 tRC=40
n_cmd=2583909 n_nop=2525823 n_act=3338 n_pre=3322 n_req=16380 n_rd=28296 n_write=23130 bw_util=0.0398
n_activity=157866 dram_eff=0.6515
bk0: 1812a 2556599i bk1: 1812a 2555646i bk2: 1820a 2555831i bk3: 1820a 2554173i bk4: 1740a 2556654i bk5: 1740a 2555536i bk6: 1728a 2557253i bk7: 1728a 2557200i bk8: 1728a 2558546i bk9: 1728a 2557181i bk10: 1740a 2557559i bk11: 1740a 2556469i bk12: 1788a 2559667i bk13: 1788a 2557867i bk14: 1792a 2556408i bk15: 1792a 2555890i 
dram_util_bins: 0 0 0 0 0 0 0 0 0 0
dram_eff_bins: 0 0 0 0 0 0 0 0 0 0
mrqq: max=64 avg=0.761739
Memory Partition 8: 
Cache L2_bank_016:
MSHR contents

Cache L2_bank_017:
MSHR contents

In Dram Latency Queue (total = 0): 
DRAM[8]: 16 bks, busW=4 BL=8 CL=12, tRRD=2 tCCD=6, tRCD=12 tRAS=28 tRP=12 tRC=40
n_cmd=2583909 n_nop=2525910 n_act=3285 n_pre=3269 n_req=16399 n_rd=28304 n_write=23141 bw_util=0.03982
n_activity=158197 dram_eff=0.6504
bk0: 1812a 2557402i bk1: 1812a 2555140i bk2: 1820a 2557263i bk3: 1820a 2555421i bk4: 1740a 2557915i bk5: 1740a 2556094i bk6: 1728a 2558615i bk7: 1728a 2557810i bk8: 1728a 2558504i bk9: 1728a 2556716i bk10: 1740a 2556999i bk11: 1740a 2556283i bk12: 1792a 2559061i bk13: 1792a 2557377i bk14: 1792a 2555669i bk15: 1792a 2554748i 
dram_util_bins: 0 0 0 0 0 0 0 0 0 0
dram_eff_bins: 0 0 0 0 0 0 0 0 0 0
mrqq: max=64 avg=0.7641
Memory Partition 9: 
Cache L2_bank_018:
MSHR contents

Cache L2_bank_019:
MSHR contents

In Dram Latency Queue (total = 0): 
DRAM[9]: 16 bks, busW=4 BL=8 CL=12, tRRD=2 tCCD=6, tRCD=12 tRAS=28 tRP=12 tRC=40
n_cmd=2583909 n_nop=2525844 n_act=3274 n_pre=3258 n_req=16535 n_rd=28304 n_write=23229 bw_util=0.03989
n_activity=158507 dram_eff=0.6502
bk0: 1812a 2556409i bk1: 1812a 2555100i bk2: 1820a 2556599i bk3: 1820a 2555001i bk4: 1740a 2556142i bk5: 1740a 2555797i bk6: 1728a 2559798i bk7: 1728a 2557695i bk8: 1728a 2558107i bk9: 1728a 2556802i bk10: 1740a 2557607i bk11: 1740a 2556223i bk12: 1792a 2558331i bk13: 1792a 2557098i bk14: 1792a 2556641i bk15: 1792a 2554508i 
dram_util_bins: 0 0 0 0 0 0 0 0 0 0
dram_eff_bins: 0 0 0 0 0 0 0 0 0 0
mrqq: max=64 avg=0.762533
Memory Partition 10: 
Cache L2_bank_020:
MSHR contents

Cache L2_bank_021:
MSHR contents

In Dram Latency Queue (total = 0): 
DRAM[10]: 16 bks, busW=4 BL=8 CL=12, tRRD=2 tCCD=6, tRCD=12 tRAS=28 tRP=12 tRC=40
n_cmd=2583909 n_nop=2525813 n_act=3315 n_pre=3299 n_req=16490 n_rd=28296 n_write=23186 bw_util=0.03985
n_activity=158993 dram_eff=0.6476
bk0: 1812a 2557023i bk1: 1812a 2555520i bk2: 1820a 2556029i bk3: 1820a 2555333i bk4: 1736a 2555975i bk5: 1736a 2554865i bk6: 1728a 2556970i bk7: 1728a 2557593i bk8: 1728a 2558959i bk9: 1728a 2557454i bk10: 1740a 2558469i bk11: 1740a 2557870i bk12: 1792a 2556790i bk13: 1792a 2555514i bk14: 1792a 2555604i bk15: 1792a 2554720i 
dram_util_bins: 0 0 0 0 0 0 0 0 0 0
dram_eff_bins: 0 0 0 0 0 0 0 0 0 0
mrqq: max=64 avg=0.755462

========= L2 cache stats =========
L2_cache_bank[0]: Access = 18080, Miss = 3538, Miss_rate = 0.196, Pending_hits = 7503, Reservation_fails = 13
L2_cache_bank[1]: Access = 18054, Miss = 3537, Miss_rate = 0.196, Pending_hits = 7482, Reservation_fails = 9
L2_cache_bank[2]: Access = 18070, Miss = 3538, Miss_rate = 0.196, Pending_hits = 7575, Reservation_fails = 17
L2_cache_bank[3]: Access = 18071, Miss = 3538, Miss_rate = 0.196, Pending_hits = 7375, Reservation_fails = 13
L2_cache_bank[4]: Access = 18071, Miss = 3538, Miss_rate = 0.196, Pending_hits = 7534, Reservation_fails = 14
L2_cache_bank[5]: Access = 18063, Miss = 3538, Miss_rate = 0.196, Pending_hits = 7434, Reservation_fails = 18
L2_cache_bank[6]: Access = 18052, Miss = 3537, Miss_rate = 0.196, Pending_hits = 7471, Reservation_fails = 14
L2_cache_bank[7]: Access = 18052, Miss = 3537, Miss_rate = 0.196, Pending_hits = 7538, Reservation_fails = 11
L2_cache_bank[8]: Access = 18080, Miss = 3538, Miss_rate = 0.196, Pending_hits = 7510, Reservation_fails = 10
L2_cache_bank[9]: Access = 18078, Miss = 3537, Miss_rate = 0.196, Pending_hits = 7645, Reservation_fails = 10
L2_cache_bank[10]: Access = 18078, Miss = 3537, Miss_rate = 0.196, Pending_hits = 7481, Reservation_fails = 13
L2_cache_bank[11]: Access = 18076, Miss = 3537, Miss_rate = 0.196, Pending_hits = 7493, Reservation_fails = 7
L2_cache_bank[12]: Access = 18076, Miss = 3537, Miss_rate = 0.196, Pending_hits = 7536, Reservation_fails = 9
L2_cache_bank[13]: Access = 18078, Miss = 3537, Miss_rate = 0.196, Pending_hits = 7375, Reservation_fails = 9
L2_cache_bank[14]: Access = 18052, Miss = 3537, Miss_rate = 0.196, Pending_hits = 7507, Reservation_fails = 10
L2_cache_bank[15]: Access = 18054, Miss = 3537, Miss_rate = 0.196, Pending_hits = 7463, Reservation_fails = 13
L2_cache_bank[16]: Access = 18068, Miss = 3538, Miss_rate = 0.196, Pending_hits = 7526, Reservation_fails = 12
L2_cache_bank[17]: Access = 18068, Miss = 3538, Miss_rate = 0.196, Pending_hits = 7435, Reservation_fails = 13
L2_cache_bank[18]: Access = 18070, Miss = 3538, Miss_rate = 0.196, Pending_hits = 7560, Reservation_fails = 11
L2_cache_bank[19]: Access = 18062, Miss = 3538, Miss_rate = 0.196, Pending_hits = 7559, Reservation_fails = 19
L2_cache_bank[20]: Access = 18054, Miss = 3537, Miss_rate = 0.196, Pending_hits = 7562, Reservation_fails = 13
L2_cache_bank[21]: Access = 18052, Miss = 3537, Miss_rate = 0.196, Pending_hits = 7530, Reservation_fails = 17
L2_total_cache_accesses = 397459
L2_total_cache_misses = 77824
L2_total_cache_miss_rate = 0.1958
L2_total_cache_pending_hits = 165094
L2_total_cache_reservation_fails = 275
L2_total_cache_breakdown:
	L2_cache_stats_breakdown[GLOBAL_ACC_R][HIT] = 9948
	L2_cache_stats_breakdown[GLOBAL_ACC_R][HIT_RESERVED] = 117010
	L2_cache_stats_breakdown[GLOBAL_ACC_R][MISS] = 73721
	L2_cache_stats_breakdown[GLOBAL_ACC_R][RESERVATION_FAIL] = 0
	L2_cache_stats_breakdown[LOCAL_ACC_R][HIT] = 0
	L2_cache_stats_breakdown[LOCAL_ACC_R][HIT_RESERVED] = 0
	L2_cache_stats_breakdown[LOCAL_ACC_R][MISS] = 0
	L2_cache_stats_breakdown[LOCAL_ACC_R][RESERVATION_FAIL] = 0
	L2_cache_stats_breakdown[CONST_ACC_R][HIT] = 0
	L2_cache_stats_breakdown[CONST_ACC_R][HIT_RESERVED] = 27
	L2_cache_stats_breakdown[CONST_ACC_R][MISS] = 1
	L2_cache_stats_breakdown[CONST_ACC_R][RESERVATION_FAIL] = 0
	L2_cache_stats_breakdown[TEXTURE_ACC_R][HIT] = 0
	L2_cache_stats_breakdown[TEXTURE_ACC_R][HIT_RESERVED] = 0
	L2_cache_stats_breakdown[TEXTURE_ACC_R][MISS] = 0
	L2_cache_stats_breakdown[TEXTURE_ACC_R][RESERVATION_FAIL] = 0
	L2_cache_stats_breakdown[GLOBAL_ACC_W][HIT] = 144563
	L2_cache_stats_breakdown[GLOBAL_ACC_W][HIT_RESERVED] = 47925
	L2_cache_stats_breakdown[GLOBAL_ACC_W][MISS] = 4096
	L2_cache_stats_breakdown[GLOBAL_ACC_W][RESERVATION_FAIL] = 275
	L2_cache_stats_breakdown[LOCAL_ACC_W][HIT] = 0
	L2_cache_stats_breakdown[LOCAL_ACC_W][HIT_RESERVED] = 0
	L2_cache_stats_breakdown[LOCAL_ACC_W][MISS] = 0
	L2_cache_stats_breakdown[LOCAL_ACC_W][RESERVATION_FAIL] = 0
	L2_cache_stats_breakdown[L1_WRBK_ACC][HIT] = 0
	L2_cache_stats_breakdown[L1_WRBK_ACC][HIT_RESERVED] = 0
	L2_cache_stats_breakdown[L1_WRBK_ACC][MISS] = 0
	L2_cache_stats_breakdown[L1_WRBK_ACC][RESERVATION_FAIL] = 0
	L2_cache_stats_breakdown[L2_WRBK_ACC][HIT] = 0
	L2_cache_stats_breakdown[L2_WRBK_ACC][HIT_RESERVED] = 0
	L2_cache_stats_breakdown[L2_WRBK_ACC][MISS] = 0
	L2_cache_stats_breakdown[L2_WRBK_ACC][RESERVATION_FAIL] = 0
	L2_cache_stats_breakdown[INST_ACC_R][HIT] = 30
	L2_cache_stats_breakdown[INST_ACC_R][HIT_RESERVED] = 132
	L2_cache_stats_breakdown[INST_ACC_R][MISS] = 6
	L2_cache_stats_breakdown[INST_ACC_R][RESERVATION_FAIL] = 0
	L2_cache_stats_breakdown[L1_WR_ALLOC_R][HIT] = 0
	L2_cache_stats_breakdown[L1_WR_ALLOC_R][HIT_RESERVED] = 0
	L2_cache_stats_breakdown[L1_WR_ALLOC_R][MISS] = 0
	L2_cache_stats_breakdown[L1_WR_ALLOC_R][RESERVATION_FAIL] = 0
	L2_cache_stats_breakdown[L2_WR_ALLOC_R][HIT] = 0
	L2_cache_stats_breakdown[L2_WR_ALLOC_R][HIT_RESERVED] = 0
[...]
F:  5178533----T:  5178733 	 St: c1860d00 Sz: 128 	 Sm: 0 	 T: dma(0.135044)
F:  5178733----T:  5178933 	 St: c1860d80 Sz: 64 	 Sm: 0 	 T: dma(0.135044)
F:  5178933----T:  5179133 	 St: c1860060 Sz: 32 	 Sm: 0 	 T: dma(0.135044)
F:  5179133----T:  5179333 	 St: c1860080 Sz: 128 	 Sm: 0 	 T: dma(0.135044)
F:  5179333----T:  5179533 	 St: c18608e0 Sz: 32 	 Sm: 0 	 T: dma(0.135044)
F:  5179533----T:  5179733 	 St: c1860900 Sz: 128 	 Sm: 0 	 T: dma(0.135044)
F:  5179733----T:  5179933 	 St: c1861c00 Sz: 128 	 Sm: 0 	 T: dma(0.135044)
F:  5179933----T:  5180133 	 St: c1861c80 Sz: 32 	 Sm: 0 	 T: dma(0.135044)
F:  5180133----T:  5180333 	 St: c1861d00 Sz: 128 	 Sm: 0 	 T: dma(0.135044)
F:  5180333----T:  5180533 	 St: c1861d80 Sz: 32 	 Sm: 0 	 T: dma(0.135044)
F:  5180533----T:  5180733 	 St: c18628c0 Sz: 64 	 Sm: 0 	 T: dma(0.135044)
F:  5180733----T:  5180933 	 St: c1862900 Sz: 128 	 Sm: 0 	 T: dma(0.135044)
F:  5180933----T:  5181133 	 St: c0fd09e0 Sz: 32 	 Sm: 0 	 T: dma(0.135044)
F:  5181133----T:  5181333 	 St: c0fd0a00 Sz: 128 	 Sm: 0 	 T: dma(0.135044)
F:  5181333----T:  5181533 	 St: c0fd0c00 Sz: 128 	 Sm: 0 	 T: dma(0.135044)
F:  5181533----T:  5181733 	 St: c0fd0c80 Sz: 32 	 Sm: 0 	 T: dma(0.135044)
F:  5181733----T:  5181933 	 St: c0fd0e00 Sz: 128 	 Sm: 0 	 T: dma(0.135044)
F:  5181933----T:  5182133 	 St: c0fd0e80 Sz: 64 	 Sm: 0 	 T: dma(0.135044)
F:  5182133----T:  5182333 	 St: c0fd06c0 Sz: 64 	 Sm: 0 	 T: dma(0.135044)
F:  5182333----T:  5182533 	 St: c0fd0700 Sz: 128 	 Sm: 0 	 T: dma(0.135044)
F:  5182533----T:  5182733 	 St: c0fd07c0 Sz: 64 	 Sm: 0 	 T: dma(0.135044)
F:  5182733----T:  5182933 	 St: c0fd0800 Sz: 128 	 Sm: 0 	 T: dma(0.135044)
F:  5182933----T:  5183133 	 St: c0fd0d00 Sz: 128 	 Sm: 0 	 T: dma(0.135044)
F:  5183133----T:  5183333 	 St: c0fd0d80 Sz: 64 	 Sm: 0 	 T: dma(0.135044)
F:  5183333----T:  5183533 	 St: c0fd08e0 Sz: 32 	 Sm: 0 	 T: dma(0.135044)
F:  5183533----T:  5183733 	 St: c0fd0900 Sz: 128 	 Sm: 0 	 T: dma(0.135044)
F:  5183733----T:  5186533 	 St: c1860000 Sz: 8192 	 Sm: 0 	 T: memcpy_h2d(1.890614)
F:  5186533----T:  5246898 	 St: c1862000 Sz: 516096 	 Sm: 0 	 T: memcpy_h2d(40.759621)
F:  5246898----T:  5249503 	 St: c0fd0000 Sz: 4096 	 Sm: 0 	 T: memcpy_h2d(1.758947)
F:  5249503----T:  5310339 	 St: c0fd1000 Sz: 520192 	 Sm: 0 	 T: memcpy_h2d(41.077652)
F:  5347704----T:  5347904 	 St: c18e0500 Sz: 128 	 Sm: 0 	 T: dma(0.135044)
F:  5347904----T:  5348104 	 St: c18e0580 Sz: 64 	 Sm: 0 	 T: dma(0.135044)
F:  5348104----T:  5348304 	 St: c18e1840 Sz: 64 	 Sm: 0 	 T: dma(0.135044)
F:  5348304----T:  5348504 	 St: c18e1880 Sz: 128 	 Sm: 0 	 T: dma(0.135044)
F:  5348504----T:  5351109 	 St: c18e0000 Sz: 4096 	 Sm: 0 	 T: memcpy_h2d(1.758947)
F:  5351109----T:  5351309 	 St: c1050600 Sz: 128 	 Sm: 0 	 T: dma(0.135044)
F:  5351309----T:  5351509 	 St: c1050680 Sz: 64 	 Sm: 0 	 T: dma(0.135044)
F:  5351509----T:  5351709 	 St: c1050300 Sz: 128 	 Sm: 0 	 T: dma(0.135044)
F:  5351709----T:  5351909 	 St: c1050380 Sz: 32 	 Sm: 0 	 T: dma(0.135044)
F:  5351909----T:  5352109 	 St: c1050400 Sz: 128 	 Sm: 0 	 T: dma(0.135044)
F:  5352109----T:  5352309 	 St: c1050480 Sz: 32 	 Sm: 0 	 T: dma(0.135044)
F:  5352309----T:  5352509 	 St: c1050500 Sz: 128 	 Sm: 0 	 T: dma(0.135044)
F:  5352509----T:  5352709 	 St: c1050580 Sz: 64 	 Sm: 0 	 T: dma(0.135044)
F:  5352709----T:  5352909 	 St: c1051840 Sz: 64 	 Sm: 0 	 T: dma(0.135044)
F:  5352909----T:  5353109 	 St: c1051880 Sz: 128 	 Sm: 0 	 T: dma(0.135044)
F:  5353109----T:  5474198 	 St: c18e1000 Sz: 1044480 	 Sm: 0 	 T: memcpy_h2d(81.761650)
F:  5474198----T:  5476803 	 St: c1050000 Sz: 4096 	 Sm: 0 	 T: memcpy_h2d(1.758947)
F:  5476803----T:  5597892 	 St: c1051000 Sz: 1044480 	 Sm: 0 	 T: memcpy_h2d(81.761650)
F:  5677564----T:  5677764 	 St: c19e0840 Sz: 64 	 Sm: 0 	 T: dma(0.135044)
F:  5677764----T:  5677964 	 St: c19e0880 Sz: 128 	 Sm: 0 	 T: dma(0.135044)
F:  5677964----T:  5678164 	 St: c19e0940 Sz: 64 	 Sm: 0 	 T: dma(0.135044)
F:  5678164----T:  5678364 	 St: c19e0980 Sz: 128 	 Sm: 0 	 T: dma(0.135044)
F:  5678364----T:  5678564 	 St: c19e0a60 Sz: 32 	 Sm: 0 	 T: dma(0.135044)
F:  5678564----T:  5678764 	 St: c19e0a80 Sz: 128 	 Sm: 0 	 T: dma(0.135044)
F:  5678764----T:  5678964 	 St: c19e0b60 Sz: 32 	 Sm: 0 	 T: dma(0.135044)
F:  5678964----T:  5679164 	 St: c19e0b80 Sz: 128 	 Sm: 0 	 T: dma(0.135044)
F:  5679164----T:  5679364 	 St: c19e0000 Sz: 128 	 Sm: 0 	 T: dma(0.135044)
F:  5679364----T:  5679564 	 St: c19e2700 Sz: 128 	 Sm: 0 	 T: dma(0.135044)
F:  5679564----T:  5679764 	 St: c19e2780 Sz: 32 	 Sm: 0 	 T: dma(0.135044)
F:  5679764----T:  5679964 	 St: c19e0400 Sz: 128 	 Sm: 0 	 T: dma(0.135044)
F:  5679964----T:  5680164 	 St: c19e0480 Sz: 32 	 Sm: 0 	 T: dma(0.135044)
F:  5680164----T:  5680364 	 St: c19e0500 Sz: 128 	 Sm: 0 	 T: dma(0.135044)
F:  5680364----T:  5680564 	 St: c19e0580 Sz: 32 	 Sm: 0 	 T: dma(0.135044)
F:  5680564----T:  5680764 	 St: c1150840 Sz: 64 	 Sm: 0 	 T: dma(0.135044)
F:  5680764----T:  5680964 	 St: c1150880 Sz: 128 	 Sm: 0 	 T: dma(0.135044)
F:  5680964----T:  5684050 	 St: c19e0000 Sz: 12288 	 Sm: 0 	 T: memcpy_h2d(2.083727)
F:  5684050----T:  5684250 	 St: c1150000 Sz: 128 	 Sm: 0 	 T: dma(0.135044)
F:  5684250----T:  5684450 	 St: c1152700 Sz: 128 	 Sm: 0 	 T: dma(0.135044)
F:  5684450----T:  5684650 	 St: c1152780 Sz: 32 	 Sm: 0 	 T: dma(0.135044)
F:  5684650----T:  5684850 	 St: c1150a60 Sz: 32 	 Sm: 0 	 T: dma(0.135044)
F:  5684850----T:  5685050 	 St: c1150a80 Sz: 128 	 Sm: 0 	 T: dma(0.135044)
F:  5685050----T:  5692372 	 St: c19e3000 Sz: 53248 	 Sm: 0 	 T: memcpy_h2d(4.943957)
F:  5692372----T:  5694977 	 St: c1150000 Sz: 4096 	 Sm: 0 	 T: memcpy_h2d(1.758947)
F:  5694977----T:  5703217 	 St: c1151000 Sz: 61440 	 Sm: 0 	 T: memcpy_h2d(5.563808)
F:  5705384----T:  5705584 	 St: c19fe000 Sz: 128 	 Sm: 0 	 T: dma(0.135044)
F:  5705584----T:  5705784 	 St: c19fe080 Sz: 32 	 Sm: 0 	 T: dma(0.135044)
F:  5705784----T:  5705984 	 St: c19f4180 Sz: 128 	 Sm: 0 	 T: dma(0.135044)
F:  5705984----T:  5706184 	 St: c19f4200 Sz: 64 	 Sm: 0 	 T: dma(0.135044)
F:  5706184----T:  5706384 	 St: c19fc680 Sz: 128 	 Sm: 0 	 T: dma(0.135044)
F:  5706384----T:  5706584 	 St: c19fc700 Sz: 32 	 Sm: 0 	 T: dma(0.135044)
F:  5706584----T:  5710396 	 St: c19f0000 Sz: 20480 	 Sm: 0 	 T: memcpy_h2d(2.573936)
F:  5710396----T:  5710596 	 St: c1a06800 Sz: 128 	 Sm: 0 	 T: dma(0.135044)
F:  5710596----T:  5710796 	 St: c1a06880 Sz: 32 	 Sm: 0 	 T: dma(0.135044)
F:  5710796----T:  5710996 	 St: c1a06c40 Sz: 64 	 Sm: 0 	 T: dma(0.135044)
F:  5710996----T:  5711196 	 St: c1a06c80 Sz: 128 	 Sm: 0 	 T: dma(0.135044)
F:  5711196----T:  5711396 	 St: c1a05b40 Sz: 64 	 Sm: 0 	 T: dma(0.135044)
F:  5711396----T:  5711596 	 St: c1a05b80 Sz: 128 	 Sm: 0 	 T: dma(0.135044)
F:  5711596----T:  5711796 	 St: c1a01740 Sz: 64 	 Sm: 0 	 T: dma(0.135044)
F:  5711796----T:  5711996 	 St: c1a01780 Sz: 128 	 Sm: 0 	 T: dma(0.135044)
F:  5711996----T:  5712196 	 St: c1a02840 Sz: 64 	 Sm: 0 	 T: dma(0.135044)
F:  5712196----T:  5712396 	 St: c1a02880 Sz: 128 	 Sm: 0 	 T: dma(0.135044)
F:  5712396----T:  5712596 	 St: c1a03940 Sz: 64 	 Sm: 0 	 T: dma(0.135044)
F:  5712596----T:  5712796 	 St: c1a03980 Sz: 128 	 Sm: 0 	 T: dma(0.135044)
F:  5712796----T:  5712996 	 St: c1a01300 Sz: 128 	 Sm: 0 	 T: dma(0.135044)
F:  5712996----T:  5713196 	 St: c1a01380 Sz: 32 	 Sm: 0 	 T: dma(0.135044)
F:  5713196----T:  5713396 	 St: c116c680 Sz: 128 	 Sm: 0 	 T: dma(0.135044)
F:  5713396----T:  5713596 	 St: c116c700 Sz: 32 	 Sm: 0 	 T: dma(0.135044)
F:  5713596----T:  5713796 	 St: c116e000 Sz: 128 	 Sm: 0 	 T: dma(0.135044)
F:  5713796----T:  5713996 	 St: c116e080 Sz: 32 	 Sm: 0 	 T: dma(0.135044)
F:  5713996----T:  5714196 	 St: c1176c40 Sz: 64 	 Sm: 0 	 T: dma(0.135044)
F:  5714196----T:  5714396 	 St: c1176c80 Sz: 128 	 Sm: 0 	 T: dma(0.135044)
F:  5714396----T:  5714596 	 St: c1176cc0 Sz: 64 	 Sm: 0 	 T: dma(0.135044)
F:  5714596----T:  5714796 	 St: c1176d00 Sz: 128 	 Sm: 0 	 T: dma(0.135044)
F:  5714796----T:  5714996 	 St: c1176de0 Sz: 32 	 Sm: 0 	 T: dma(0.135044)
F:  5714996----T:  5715196 	 St: c1176e00 Sz: 128 	 Sm: 0 	 T: dma(0.135044)
F:  5715196----T:  5715396 	 St: c1176ee0 Sz: 32 	 Sm: 0 	 T: dma(0.135044)
F:  5715396----T:  5715596 	 St: c1176f00 Sz: 128 	 Sm: 0 	 T: dma(0.135044)
F:  5715596----T:  5715796 	 St: c1176800 Sz: 128 	 Sm: 0 	 T: dma(0.135044)
F:  5715796----T:  5715996 	 St: c1176880 Sz: 32 	 Sm: 0 	 T: dma(0.135044)
F:  5715996----T:  5722408 	 St: c19f5000 Sz: 45056 	 Sm: 0 	 T: memcpy_h2d(4.329507)
F:  5722408----T:  5725494 	 St: c1a00000 Sz: 12288 	 Sm: 0 	 T: memcpy_h2d(2.083727)
F:  5725494----T:  5740252 	 St: c1a03000 Sz: 118784 	 Sm: 0 	 T: memcpy_h2d(9.964889)
F:  5740252----T:  5743338 	 St: c1160000 Sz: 12288 	 Sm: 0 	 T: memcpy_h2d(2.083727)
F:  5743338----T:  5750660 	 St: c1163000 Sz: 53248 	 Sm: 0 	 T: memcpy_h2d(4.943957)
F:  5750660----T:  5755301 	 St: c1170000 Sz: 28672 	 Sm: 0 	 T: memcpy_h2d(3.133693)
F:  5755301----T:  5768189 	 St: c1177000 Sz: 102400 	 Sm: 0 	 T: memcpy_h2d(8.702229)
F:  5771676----T:  5771876 	 St: c1a26d60 Sz: 32 	 Sm: 0 	 T: dma(0.135044)
F:  5771876----T:  5772076 	 St: c1a26d80 Sz: 128 	 Sm: 0 	 T: dma(0.135044)
F:  5772076----T:  5772276 	 St: c1a2e460 Sz: 32 	 Sm: 0 	 T: dma(0.135044)
F:  5772276----T:  5772476 	 St: c1a2e480 Sz: 128 	 Sm: 0 	 T: dma(0.135044)
F:  5772476----T:  5772676 	 St: c1a23600 Sz: 128 	 Sm: 0 	 T: dma(0.135044)
F:  5772676----T:  5772876 	 St: c1a23680 Sz: 64 	 Sm: 0 	 T: dma(0.135044)
F:  5772876----T:  5773076 	 St: c1a32400 Sz: 128 	 Sm: 0 	 T: dma(0.135044)
F:  5773076----T:  5773276 	 St: c1a32480 Sz: 64 	 Sm: 0 	 T: dma(0.135044)
F:  5773276----T:  5773476 	 St: c1a25800 Sz: 128 	 Sm: 0 	 T: dma(0.135044)
F:  5773476----T:  5773676 	 St: c1a25880 Sz: 64 	 Sm: 0 	 T: dma(0.135044)
F:  5773676----T:  5773876 	 St: c1a20660 Sz: 32 	 Sm: 0 	 T: dma(0.135044)
F:  5773876----T:  5774076 	 St: c1a20680 Sz: 128 	 Sm: 0 	 T: dma(0.135044)
F:  5774076----T:  5774276 	 St: c1a22d80 Sz: 128 	 Sm: 0 	 T: dma(0.135044)
F:  5774276----T:  5774476 	 St: c1a22e00 Sz: 64 	 Sm: 0 	 T: dma(0.135044)
F:  5774476----T:  5778695 	 St: c1a20000 Sz: 24576 	 Sm: 0 	 T: memcpy_h2d(2.848751)
F:  5778695----T:  5778895 	 St: c1190760 Sz: 32 	 Sm: 0 	 T: dma(0.135044)
F:  5778895----T:  5779095 	 St: c1190780 Sz: 128 	 Sm: 0 	 T: dma(0.135044)
F:  5779095----T:  5779295 	 St: c1190440 Sz: 64 	 Sm: 0 	 T: dma(0.135044)
F:  5779295----T:  5779495 	 St: c1190480 Sz: 128 	 Sm: 0 	 T: dma(0.135044)
F:  5779495----T:  5779695 	 St: c1190540 Sz: 64 	 Sm: 0 	 T: dma(0.135044)
F:  5779695----T:  5779895 	 St: c1190580 Sz: 128 	 Sm: 0 	 T: dma(0.135044)
F:  5779895----T:  5808267 	 St: c1a26000 Sz: 237568 	 Sm: 0 	 T: memcpy_h2d(19.157326)
F:  5808267----T:  5810872 	 St: c1190000 Sz: 4096 	 Sm: 0 	 T: memcpy_h2d(1.758947)
F:  5810872----T:  5841595 	 St: c1191000 Sz: 258048 	 Sm: 0 	 T: memcpy_h2d(20.744766)
F:  5858680----T:  5861285 	 St: 0 Sz: 4096 	 Sm: 0 	 T: device_sync(1.758947)
F:  5858680----T:  5866920 	 St: 0 Sz: 61440 	 Sm: 0 	 T: device_sync(5.563808)
F:  5869525----T:  5872130 	 St: 0 Sz: 4096 	 Sm: 0 	 T: device_sync(1.758947)
F:  5869525----T:  5877765 	 St: 0 Sz: 61440 	 Sm: 0 	 T: device_sync(5.563808)
F:  5880370----T:  5882975 	 St: 0 Sz: 4096 	 Sm: 0 	 T: device_sync(1.758947)
F:  5880370----T:  5896065 	 St: 0 Sz: 126976 	 Sm: 0 	 T: device_sync(10.597569)
F:  5898670----T:  5901275 	 St: 0 Sz: 4096 	 Sm: 0 	 T: device_sync(1.758947)
F:  5898670----T:  5929393 	 St: 0 Sz: 258048 	 Sm: 0 	 T: device_sync(20.744766)
F:  5931998----T:  5934603 	 St: 0 Sz: 4096 	 Sm: 0 	 T: device_sync(1.758947)
F:  5931998----T:  5992834 	 St: 0 Sz: 520192 	 Sm: 0 	 T: device_sync(41.077652)
F:  5995439----T:  5998044 	 St: 0 Sz: 4096 	 Sm: 0 	 T: device_sync(1.758947)
F:  5995439----T:  6116528 	 St: 0 Sz: 1044480 	 Sm: 0 	 T: device_sync(81.761650)
F:  6119133----T:  6121738 	 St: 0 Sz: 4096 	 Sm: 0 	 T: device_sync(1.758947)
F:  6119133----T:  6127373 	 St: 0 Sz: 61440 	 Sm: 0 	 T: device_sync(5.563808)
F:  6129978----T:  6132583 	 St: 0 Sz: 4096 	 Sm: 0 	 T: device_sync(1.758947)
F:  6129978----T:  6138218 	 St: 0 Sz: 61440 	 Sm: 0 	 T: device_sync(5.563808)
F:  6140823----T:  6143428 	 St: 0 Sz: 4096 	 Sm: 0 	 T: device_sync(1.758947)
F:  6140823----T:  6156518 	 St: 0 Sz: 126976 	 Sm: 0 	 T: device_sync(10.597569)
F:  6159123----T:  6161728 	 St: 0 Sz: 4096 	 Sm: 0 	 T: device_sync(1.758947)
F:  6159123----T:  6189846 	 St: 0 Sz: 258048 	 Sm: 0 	 T: device_sync(20.744766)
F:  6192451----T:  6195056 	 St: 0 Sz: 4096 	 Sm: 0 	 T: device_sync(1.758947)
F:  6192451----T:  6253287 	 St: 0 Sz: 520192 	 Sm: 0 	 T: device_sync(41.077652)
F:  6255892----T:  6258497 	 St: 0 Sz: 4096 	 Sm: 0 	 T: device_sync(1.758947)
F:  6255892----T:  6376981 	 St: 0 Sz: 1044480 	 Sm: 0 	 T: device_sync(81.761650)
F:  6379586----T:  6382191 	 St: 0 Sz: 4096 	 Sm: 0 	 T: device_sync(1.758947)
F:  6379586----T:  6387826 	 St: 0 Sz: 61440 	 Sm: 0 	 T: device_sync(5.563808)
F:  6390431----T:  6393036 	 St: 0 Sz: 4096 	 Sm: 0 	 T: device_sync(1.758947)
F:  6390431----T:  6398671 	 St: 0 Sz: 61440 	 Sm: 0 	 T: device_sync(5.563808)
F:  6401276----T:  6403881 	 St: 0 Sz: 4096 	 Sm: 0 	 T: device_sync(1.758947)
F:  6401276----T:  6416971 	 St: 0 Sz: 126976 	 Sm: 0 	 T: device_sync(10.597569)
F:  6419576----T:  6422181 	 St: 0 Sz: 4096 	 Sm: 0 	 T: device_sync(1.758947)
F:  6419576----T:  6450299 	 St: 0 Sz: 258048 	 Sm: 0 	 T: device_sync(20.744766)
F:  6452904----T:  6455509 	 St: 0 Sz: 4096 	 Sm: 0 	 T: device_sync(1.758947)
F:  6452904----T:  6513740 	 St: 0 Sz: 520192 	 Sm: 0 	 T: device_sync(41.077652)
F:  6516345----T:  6518950 	 St: 0 Sz: 4096 	 Sm: 0 	 T: device_sync(1.758947)
F:  6516345----T:  6637434 	 St: 0 Sz: 1044480 	 Sm: 0 	 T: device_sync(81.761650)
F:  6640039----T:  6642644 	 St: 0 Sz: 4096 	 Sm: 0 	 T: device_sync(1.758947)
F:  6640039----T:  6648279 	 St: 0 Sz: 61440 	 Sm: 0 	 T: device_sync(5.563808)
F:  6650884----T:  6653489 	 St: 0 Sz: 4096 	 Sm: 0 	 T: device_sync(1.758947)
F:  6650884----T:  6659124 	 St: 0 Sz: 61440 	 Sm: 0 	 T: device_sync(5.563808)
F:  6661729----T:  6664334 	 St: 0 Sz: 4096 	 Sm: 0 	 T: device_sync(1.758947)
F:  6661729----T:  6677424 	 St: 0 Sz: 126976 	 Sm: 0 	 T: device_sync(10.597569)
F:  6680029----T:  6682634 	 St: 0 Sz: 4096 	 Sm: 0 	 T: device_sync(1.758947)
F:  6680029----T:  6710752 	 St: 0 Sz: 258048 	 Sm: 0 	 T: device_sync(20.744766)
F:  6713357----T:  6715962 	 St: 0 Sz: 4096 	 Sm: 0 	 T: device_sync(1.758947)
F:  6713357----T:  6774193 	 St: 0 Sz: 520192 	 Sm: 0 	 T: device_sync(41.077652)
F:  6776798----T:  6779403 	 St: 0 Sz: 4096 	 Sm: 0 	 T: device_sync(1.758947)
F:  6776798----T:  6897887 	 St: 0 Sz: 1044480 	 Sm: 0 	 T: device_sync(81.761650)
F:  6900492----T:  6903097 	 St: 0 Sz: 4096 	 Sm: 0 	 T: device_sync(1.758947)
F:  6900492----T:  6908732 	 St: 0 Sz: 61440 	 Sm: 0 	 T: device_sync(5.563808)
F:  6911337----T:  6913942 	 St: 0 Sz: 4096 	 Sm: 0 	 T: device_sync(1.758947)
F:  6911337----T:  6919577 	 St: 0 Sz: 61440 	 Sm: 0 	 T: device_sync(5.563808)
F:  6922182----T:  6924787 	 St: 0 Sz: 4096 	 Sm: 0 	 T: device_sync(1.758947)
F:  6922182----T:  6937877 	 St: 0 Sz: 126976 	 Sm: 0 	 T: device_sync(10.597569)
F:  6940482----T:  6943087 	 St: 0 Sz: 4096 	 Sm: 0 	 T: device_sync(1.758947)
F:  6940482----T:  6971205 	 St: 0 Sz: 258048 	 Sm: 0 	 T: device_sync(20.744766)
F:  6973810----T:  6976415 	 St: 0 Sz: 4096 	 Sm: 0 	 T: device_sync(1.758947)
F:  6973810----T:  7034646 	 St: 0 Sz: 520192 	 Sm: 0 	 T: device_sync(41.077652)
F:  7037251----T:  7039856 	 St: 0 Sz: 4096 	 Sm: 0 	 T: device_sync(1.758947)
F:  7037251----T:  7158340 	 St: 0 Sz: 1044480 	 Sm: 0 	 T: device_sync(81.761650)
F:  7160945----T:  7163550 	 St: 0 Sz: 4096 	 Sm: 0 	 T: device_sync(1.758947)
F:  7160945----T:  7169185 	 St: 0 Sz: 61440 	 Sm: 0 	 T: device_sync(5.563808)
F:  7171790----T:  7174395 	 St: 0 Sz: 4096 	 Sm: 0 	 T: device_sync(1.758947)
F:  7171790----T:  7180030 	 St: 0 Sz: 61440 	 Sm: 0 	 T: device_sync(5.563808)
F:  7182635----T:  7185240 	 St: 0 Sz: 4096 	 Sm: 0 	 T: device_sync(1.758947)
F:  7182635----T:  7198330 	 St: 0 Sz: 126976 	 Sm: 0 	 T: device_sync(10.597569)
F:  7200935----T:  7203540 	 St: 0 Sz: 4096 	 Sm: 0 	 T: device_sync(1.758947)
F:  7200935----T:  7231658 	 St: 0 Sz: 258048 	 Sm: 0 	 T: device_sync(20.744766)
F:  7234263----T:  7236868 	 St: 0 Sz: 4096 	 Sm: 0 	 T: device_sync(1.758947)
F:  7234263----T:  7295099 	 St: 0 Sz: 520192 	 Sm: 0 	 T: device_sync(41.077652)
F:  7297704----T:  7300309 	 St: 0 Sz: 4096 	 Sm: 0 	 T: device_sync(1.758947)
F:  7297704----T:  7418793 	 St: 0 Sz: 1044480 	 Sm: 0 	 T: device_sync(81.761650)
F:  7421398----T:  7424003 	 St: 0 Sz: 4096 	 Sm: 0 	 T: device_sync(1.758947)
F:  7421398----T:  7429638 	 St: 0 Sz: 61440 	 Sm: 0 	 T: device_sync(5.563808)
F:  7432243----T:  7434848 	 St: 0 Sz: 4096 	 Sm: 0 	 T: device_sync(1.758947)
F:  7432243----T:  7440483 	 St: 0 Sz: 61440 	 Sm: 0 	 T: device_sync(5.563808)
F:  7443088----T:  7445693 	 St: 0 Sz: 4096 	 Sm: 0 	 T: device_sync(1.758947)
F:  7443088----T:  7458783 	 St: 0 Sz: 126976 	 Sm: 0 	 T: device_sync(10.597569)
F:  7461388----T:  7463993 	 St: 0 Sz: 4096 	 Sm: 0 	 T: device_sync(1.758947)
F:  7461388----T:  7492111 	 St: 0 Sz: 258048 	 Sm: 0 	 T: device_sync(20.744766)
F:  7494716----T:  7497321 	 St: 0 Sz: 4096 	 Sm: 0 	 T: device_sync(1.758947)
F:  7494716----T:  7555552 	 St: 0 Sz: 520192 	 Sm: 0 	 T: device_sync(41.077652)
F:  7558157----T:  7560762 	 St: 0 Sz: 4096 	 Sm: 0 	 T: device_sync(1.758947)
F:  7558157----T:  7679246 	 St: 0 Sz: 1044480 	 Sm: 0 	 T: device_sync(81.761650)
F:  7681851----T:  7684456 	 St: 0 Sz: 4096 	 Sm: 0 	 T: device_sync(1.758947)
F:  7681851----T:  7690091 	 St: 0 Sz: 61440 	 Sm: 0 	 T: device_sync(5.563808)
F:  7692696----T:  7695301 	 St: 0 Sz: 4096 	 Sm: 0 	 T: device_sync(1.758947)
F:  7692696----T:  7700936 	 St: 0 Sz: 61440 	 Sm: 0 	 T: device_sync(5.563808)
F:  7703541----T:  7706146 	 St: 0 Sz: 4096 	 Sm: 0 	 T: device_sync(1.758947)
F:  7703541----T:  7719236 	 St: 0 Sz: 126976 	 Sm: 0 	 T: device_sync(10.597569)
F:  7721841----T:  7724446 	 St: 0 Sz: 4096 	 Sm: 0 	 T: device_sync(1.758947)
F:  7721841----T:  7752564 	 St: 0 Sz: 258048 	 Sm: 0 	 T: device_sync(20.744766)
F:  7755169----T:  7757774 	 St: 0 Sz: 4096 	 Sm: 0 	 T: device_sync(1.758947)
F:  7755169----T:  7816005 	 St: 0 Sz: 520192 	 Sm: 0 	 T: device_sync(41.077652)
F:  7818610----T:  7821215 	 St: 0 Sz: 4096 	 Sm: 0 	 T: device_sync(1.758947)
F:  7818610----T:  7939699 	 St: 0 Sz: 1044480 	 Sm: 0 	 T: device_sync(81.761650)
F:  7942304----T:  7944909 	 St: 0 Sz: 4096 	 Sm: 0 	 T: device_sync(1.758947)
F:  7942304----T:  7950544 	 St: 0 Sz: 61440 	 Sm: 0 	 T: device_sync(5.563808)
F:  7953149----T:  7955754 	 St: 0 Sz: 4096 	 Sm: 0 	 T: device_sync(1.758947)
F:  7953149----T:  7961389 	 St: 0 Sz: 61440 	 Sm: 0 	 T: device_sync(5.563808)
F:  7963994----T:  7966599 	 St: 0 Sz: 4096 	 Sm: 0 	 T: device_sync(1.758947)
F:  7963994----T:  7979689 	 St: 0 Sz: 126976 	 Sm: 0 	 T: device_sync(10.597569)
F:  7982294----T:  7984899 	 St: 0 Sz: 4096 	 Sm: 0 	 T: device_sync(1.758947)
F:  7982294----T:  8013017 	 St: 0 Sz: 258048 	 Sm: 0 	 T: device_sync(20.744766)
F:  8015622----T:  8018227 	 St: 0 Sz: 4096 	 Sm: 0 	 T: device_sync(1.758947)
F:  8015622----T:  8076458 	 St: 0 Sz: 520192 	 Sm: 0 	 T: device_sync(41.077652)
Tot_prefetch_time: 0(cycle), 0.000000(us)
Tot_kernel_exec_time: 4235809(cycle), 2860.100586(us)
Tot_kernel_exec_time_and_fault_time: 10700374(cycle), 7225.100586(us)
Tot_memcpy_h2d_time: 3481090(cycle), 2350.499756(us)
Tot_memcpy_d2h_time: 0(cycle), 0.000000(us)
Tot_memcpy_time: 3481090(cycle), 2350.499756(us)
Tot_devicesync_time: 3398954(cycle), 2295.039795(us)
Tot_writeback_time: 0(cycle), 0.000000(us)
Tot_dma_time: 85400(cycle), 57.663742(us)
Tot_memcpy_d2h_sync_wb_time: 3398954(cycle), 2295.039795(us)
GPGPU-Sim: *** exit detected ***
