

        *** GPGPU-Sim Simulator Version 3.2.2  [build gpgpu-sim_git-commit-c8c883f82f149f8a735f810bff4b4328d99c95c2_modified_0] ***


GPGPU-Sim PTX: simulation mode 0 (can change with PTX_SIM_MODE_FUNC environment variable:
               1=functional simulation only, 0=detailed performance simulator)
GPGPU-Sim: Configuration options:

-network_mode                           1 # Interconnection network mode
-inter_config_file   config_fermi_islip.icnt # Interconnection network config file
-gpgpu_ptx_use_cuobjdump                    1 # Use cuobjdump to extract ptx and sass from binaries
-gpgpu_experimental_lib_support                    0 # Try to extract code from cuda libraries [Broken because of unknown cudaGetExportTable]
-gpgpu_ptx_convert_to_ptxplus                    0 # Convert SASS (native ISA) to ptxplus and run ptxplus
-gpgpu_ptx_force_max_capability                   20 # Force maximum compute capability
-gpgpu_ptx_inst_debug_to_file                    0 # Dump executed instructions' debug information to file
-gpgpu_ptx_inst_debug_file       inst_debug.txt # Executed instructions' debug output file
-gpgpu_ptx_inst_debug_thread_uid                    1 # Thread UID for executed instructions' debug output
-gpgpu_simd_model                       1 # 1 = post-dominator
-gpgpu_shader_core_pipeline              2048:32 # shader core pipeline config, i.e., {<nthread>:<warpsize>}
-gpgpu_tex_cache:l1  16:128:24,L:R:m:N:L,F:128:4,128:2 # per-shader L1 texture cache  (READ-ONLY) config  {<nsets>:<bsize>:<assoc>,<rep>:<wr>:<alloc>:<wr_alloc>,<mshr>:<N>:<merge>,<mq>:<rf>}
-gpgpu_const_cache:l1 128:64:2,L:R:f:N:L,A:2:64,4 # per-shader L1 constant memory cache  (READ-ONLY) config  {<nsets>:<bsize>:<assoc>,<rep>:<wr>:<alloc>:<wr_alloc>,<mshr>:<N>:<merge>,<mq>} 
-gpgpu_cache:il1     8:128:4,L:R:f:N:L,A:2:48,4 # shader L1 instruction cache config  {<nsets>:<bsize>:<assoc>,<rep>:<wr>:<alloc>:<wr_alloc>,<mshr>:<N>:<merge>,<mq>} 
-gpgpu_cache:dl1     64:128:6,L:L:m:N:H,A:128:8,8 # per-shader L1 data cache config  {<nsets>:<bsize>:<assoc>,<rep>:<wr>:<alloc>:<wr_alloc>,<mshr>:<N>:<merge>,<mq> | none}
-gpgpu_cache:dl1PrefL1                 none # per-shader L1 data cache config  {<nsets>:<bsize>:<assoc>,<rep>:<wr>:<alloc>:<wr_alloc>,<mshr>:<N>:<merge>,<mq> | none}
-gpgpu_cache:dl1PrefShared                 none # per-shader L1 data cache config  {<nsets>:<bsize>:<assoc>,<rep>:<wr>:<alloc>:<wr_alloc>,<mshr>:<N>:<merge>,<mq> | none}
-gmem_skip_L1D                          1 # global memory access skip L1D cache (implements -Xptxas -dlcm=cg, default=no skip)
-gpgpu_perfect_mem                      0 # enable perfect memory mode (no cache miss)
-n_regfile_gating_group                    4 # group of lanes that should be read/written together)
-gpgpu_clock_gated_reg_file                    0 # enable clock gated reg file for power calculations
-gpgpu_clock_gated_lanes                    0 # enable clock gated lanes for power calculations
-gpgpu_shader_registers                65536 # Number of registers per shader core. Limits number of concurrent CTAs. (default 8192)
-gpgpu_shader_cta                      32 # Maximum number of concurrent CTAs in shader (default 8)
-gpgpu_num_cta_barriers                   16 # Maximum number of named barriers per CTA (default 16)
-gpgpu_n_clusters                      28 # number of processing clusters
-gpgpu_n_cores_per_cluster                    1 # number of simd cores per cluster
-gpgpu_n_cluster_ejection_buffer_size                    8 # number of packets in ejection buffer
-gpgpu_n_ldst_response_buffer_size                    2 # number of response packets in ld/st unit ejection buffer
-gpgpu_shmem_size                   16384 # Size of shared memory per shader core (default 16kB)
-gpgpu_shmem_size                   98304 # Size of shared memory per shader core (default 16kB)
-gpgpu_shmem_size_PrefL1                16384 # Size of shared memory per shader core (default 16kB)
-gpgpu_shmem_size_PrefShared                16384 # Size of shared memory per shader core (default 16kB)
-gpgpu_shmem_num_banks                   32 # Number of banks in the shared memory in each shader core (default 16)
-gpgpu_shmem_limited_broadcast                    0 # Limit shared memory to do one broadcast per cycle (default on)
-gpgpu_shmem_warp_parts                    1 # Number of portions a warp is divided into for shared memory bank conflict check 
-gpgpu_warpdistro_shader                   -1 # Specify which shader core to collect the warp size distribution from
-gpgpu_warp_issue_shader                    0 # Specify which shader core to collect the warp issue distribution from
-gpgpu_local_mem_map                    1 # Mapping from local memory space address to simulated GPU physical address space (default = enabled)
-gpgpu_num_reg_banks                   32 # Number of register banks (default = 8)
-gpgpu_reg_bank_use_warp_id                    0 # Use warp ID in mapping registers to banks (default = off)
-gpgpu_operand_collector_num_units_sp                   20 # number of collector units (default = 4)
-gpgpu_operand_collector_num_units_sfu                    4 # number of collector units (default = 4)
-gpgpu_operand_collector_num_units_mem                    8 # number of collector units (default = 2)
-gpgpu_operand_collector_num_units_gen                    0 # number of collector units (default = 0)
-gpgpu_operand_collector_num_in_ports_sp                    4 # number of collector unit in ports (default = 1)
-gpgpu_operand_collector_num_in_ports_sfu                    1 # number of collector unit in ports (default = 1)
-gpgpu_operand_collector_num_in_ports_mem                    1 # number of collector unit in ports (default = 1)
-gpgpu_operand_collector_num_in_ports_gen                    0 # number of collector unit in ports (default = 0)
-gpgpu_operand_collector_num_out_ports_sp                    4 # number of collector unit in ports (default = 1)
-gpgpu_operand_collector_num_out_ports_sfu                    1 # number of collector unit in ports (default = 1)
-gpgpu_operand_collector_num_out_ports_mem                    1 # number of collector unit in ports (default = 1)
-gpgpu_operand_collector_num_out_ports_gen                    0 # number of collector unit in ports (default = 0)
-gpgpu_coalesce_arch                   13 # Coalescing arch (default = 13, anything else is off for now)
-gpgpu_num_sched_per_core                    2 # Number of warp schedulers per core
-gpgpu_max_insn_issue_per_warp                    2 # Max number of instructions that can be issued per warp in one cycle by scheduler
-gpgpu_simt_core_sim_order                    1 # Select the simulation order of cores in a cluster (0=Fix, 1=Round-Robin)
-gpgpu_pipeline_widths        4,1,1,4,1,1,6 # Pipeline widths ID_OC_SP,ID_OC_SFU,ID_OC_MEM,OC_EX_SP,OC_EX_SFU,OC_EX_MEM,EX_WB
-gpgpu_num_sp_units                     4 # Number of SP units (default=1)
-gpgpu_num_sfu_units                    1 # Number of SF units (default=1)
-gpgpu_num_mem_units                    1 # Number if ldst units (default=1) WARNING: not hooked up to anything
-gpgpu_scheduler                      gto # Scheduler configuration: < lrr | gto | two_level_active > If two_level_active:<num_active_warps>:<inner_prioritization>:<outer_prioritization>For complete list of prioritization values see shader.h enum scheduler_prioritization_typeDefault: gto
-gpgpu_concurrent_kernel_sm                    0 # Support concurrent kernels on a SM (default = disabled)
-tlb_size                            4096 # Number of tlb entries per SM.
-gpgpu_dram_scheduler                    1 # 0 = fifo, 1 = FR-FCFS (defaul)
-gpgpu_dram_partition_queues              8:8:8:8 # i2$:$2d:d2$:$2i
-l2_ideal                               0 # Use a ideal L2 cache that always hit
-gpgpu_cache:dl2     64:128:16,L:B:m:W:L,A:1024:1024,4:0,32 # unified banked L2 data cache config  {<nsets>:<bsize>:<assoc>,<rep>:<wr>:<alloc>:<wr_alloc>,<mshr>:<N>:<merge>,<mq>}
-gpgpu_cache:dl2_texture_only                    0 # L2 cache used for texture only
-gpgpu_n_mem                           11 # number of memory modules (e.g. memory controllers) in gpu
-gpgpu_n_sub_partition_per_mchannel                    2 # number of memory subpartition in each memory module
-gpgpu_n_mem_per_ctrlr                    1 # number of memory chips per memory controller
-gpgpu_memlatency_stat                   14 # track and display latency statistics 0x2 enables MC, 0x4 enables queue logs
-gpgpu_frfcfs_dram_sched_queue_size                   64 # 0 = unlimited (default); # entries per chip
-gpgpu_dram_return_queue_size                  116 # 0 = unlimited (default); # entries per chip
-gpgpu_dram_buswidth                    4 # default = 4 bytes (8 bytes per cycle at DDR)
-gpgpu_dram_burst_length                    8 # Burst length of each DRAM request (default = 4 data bus cycle)
-dram_data_command_freq_ratio                    4 # Frequency ratio between DRAM data bus and command bus (default = 2 times, i.e. DDR)
-gpgpu_dram_timing_opt nbk=16:CCD=2:RRD=6:RCD=12:RAS=28:RP=12:RC=40: CL=12:WL=4:CDLR=5:WR=12:nbkgrp=1:CCDL=0:RTPL=0 # DRAM timing parameters = {nbk:tCCD:tRRD:tRCD:tRAS:tRP:tRC:CL:WL:tCDLR:tWR:nbkgrp:tCCDL:tRTPL}
-rop_latency                          120 # ROP queue latency (default 85)
-dram_latency                         100 # DRAM latency (default 30)
-gpgpu_mem_addr_mapping dramid@8;00000000.00000000.00000000.00000000.0000RRRR.RRRRRRRR.RBBBCCCC.BCCSSSSS # mapping memory address to dram model {dramid@<start bit>;<memory address map>}
-gpgpu_mem_addr_test                    0 # run sweep test to check address mapping for aliased address
-gpgpu_mem_address_mask                    1 # 0 = old addressing mask, 1 = new addressing mask, 2 = new add. mask + flipped bank sel and chip sel bits
-gpuwattch_xml_file  gpuwattch_geforcegtx1080ti.xml # GPUWattch XML file
-power_simulation_enabled                    1 # Turn on power simulator (1=On, 0=Off)
-power_per_cycle_dump                    0 # Dump detailed power output each cycle
-power_trace_enabled                    0 # produce a file for the power trace (1=On, 0=Off)
-power_trace_zlevel                     6 # Compression level of the power trace output log (0=no comp, 9=highest)
-steady_power_levels_enabled                    0 # produce a file for the steady power levels (1=On, 0=Off)
-steady_state_definition                  8:4 # allowed deviation:number of samples
-gpgpu_max_cycle                        0 # terminates gpu simulation early (0 = no limit)
-gpgpu_max_insn                         0 # terminates gpu simulation early (0 = no limit)
-gpgpu_max_cta                          0 # terminates gpu simulation early (0 = no limit)
-gpgpu_runtime_stat                   500 # display runtime statistics such as dram utilization {<freq>:<flag>}
-liveness_message_freq                    1 # Minimum number of seconds between simulation liveness messages (0 = always print)
-gpgpu_flush_l1_cache                    0 # Flush L1 cache at the end of each kernel call
-gpgpu_flush_l2_cache                    0 # Flush L2 cache at the end of each kernel call
-gpgpu_deadlock_detect                    0 # Stop the simulation at deadlock (1=on (default), 0=off)
-gpgpu_ptx_instruction_classification                    0 # if enabled will classify ptx instruction types per kernel (Max 255 kernels now)
-gpgpu_ptx_sim_mode                     0 # Select between Performance (default) or Functional simulation (1)
-gpgpu_clock_domains 1481.0:2962.0:1481.0:2750.0 # Clock Domain Frequencies in MhZ {<Core Clock>:<ICNT Clock>:<L2 Clock>:<DRAM Clock>}
-gpgpu_max_concurrent_kernel                    8 # maximum kernels that can run concurrently on GPU
-gpgpu_cflog_interval                    0 # Interval between each snapshot in control flow logger
-visualizer_enabled                     0 # Turn on visualizer output (1=On, 0=Off)
-visualizer_outputfile                 NULL # Specifies the output log file for visualizer
-visualizer_zlevel                      6 # Compression level of the visualizer output log (0=no comp, 9=highest)
-trace_enabled                          0 # Turn on traces
-trace_components                    none # comma seperated list of traces to enable. Complete list found in trace_streams.tup. Default none
-trace_sampling_core                    0 # The core which is printed using CORE_DPRINTF. Default 0
-trace_sampling_memory_partition                   -1 # The memory partition which is printed using MEMPART_DPRINTF. Default -1 (i.e. all)
-gddr_size                            1GB # Size of GDDR in MB/GB.(GLOBAL_HEAP_START, GLOBAL_HEAP_START + gddr_size) would be used for unmanged memory, (GLOBAL_HEAP_START + gddr_size, GLOBAL_HEAP_START + gddr_size*2) would be used for managed memory. 
-page_table_walk_latency                  100 # Average page table walk latency (in core cycle).
-eviction_policy                        0 # Select page eviction policy
-invalidate_clean                       0 # Should directly invalidate clean pages
-reserve_accessed_page_percent                    0 # Percentage of accessed pages reserved from eviction in hope that they will be accessed in next iteration.
-percentage_of_free_page_buffer                    0 # Percentage of free page buffer to trigger the page eviction.
-page_size                            4KB # GDDR page size, only 4KB/2MB avaliable.
-pcie_bandwidth                  16.0GB/s # PCI-e bandwidth per direction, in GB/s.
-enable_dma                             2 # Enable direct access to CPU memory
-multiply_dma_penalty                    2 # Oversubscription Multiplicative Penalty Factor for Adaptive DMA
-migrate_threshold                     16 # Access counter threshold for migrating the page from cpu to gpu
-sim_prof_enable                        1 # Enable gpgpu-sim profiler
-hardware_prefetch                      1 # Select gpgpu-sim hardware prefetcher
-hwprefetch_oversub                     1 # Select gpgpu-sim hardware prefetcher under over-subscription
-page_fault_latency                 66645 # Average fault latency (in core cycle).
-enable_accurate_simulation                    0 # Enable page fault functional simulation.
-enable_ptx_file_line_stats                    1 # Turn on PTX source line statistic profiling. (1 = On)
-ptx_line_stats_filename gpgpu_inst_stats.txt # Output file for PTX source line statistics.
-gpgpu_kernel_launch_latency               222150 # Kernel launch latency in cycles. Default: 0
-gpgpu_cdp_enabled                      0 # Turn on CDP
-save_embedded_ptx                      0 # saves ptx files embedded in binary as <n>.ptx
-keep                                   0 # keep intermediate files created by GPGPU-Sim when interfacing with external programs
-gpgpu_ptx_save_converted_ptxplus                    0 # Saved converted ptxplus to a file
-ptx_opcode_latency_int         4,13,4,5,145 # Opcode latencies for integers <ADD,MAX,MUL,MAD,DIV>Default 1,1,19,25,145
-ptx_opcode_latency_fp          4,13,4,5,39 # Opcode latencies for single precision floating points <ADD,MAX,MUL,MAD,DIV>Default 1,1,1,1,30
-ptx_opcode_latency_dp         8,19,8,8,330 # Opcode latencies for double precision floating points <ADD,MAX,MUL,MAD,DIV>Default 8,8,8,8,335
-ptx_opcode_initiation_int            1,2,2,2,8 # Opcode initiation intervals for integers <ADD,MAX,MUL,MAD,DIV>Default 1,1,4,4,32
-ptx_opcode_initiation_fp            1,2,1,1,4 # Opcode initiation intervals for single precision floating points <ADD,MAX,MUL,MAD,DIV>Default 1,1,1,1,5
-ptx_opcode_initiation_dp          1,2,1,1,130 # Opcode initiation intervals for double precision floating points <ADD,MAX,MUL,MAD,DIV>Default 8,8,8,8,130
-cdp_latency         7200,8000,100,12000,1600 # CDP API latency <cudaStreamCreateWithFlags, cudaGetParameterBufferV2_init_perWarp, cudaGetParameterBufferV2_perKernel, cudaLaunchDeviceV2_init_perWarp, cudaLaunchDevicV2_perKernel>Default 7200,8000,100,12000,1600
DRAM Timing Options:
nbk                                    16 # number of banks
CCD                                     2 # column to column delay
RRD                                     6 # minimal delay between activation of rows in different banks
RCD                                    12 # row to column delay
RAS                                    28 # time needed to activate row
RP                                     12 # time needed to precharge (deactivate) row
RC                                     40 # row cycle time
CDLR                                    5 # switching from write to read (changes tWTR)
WR                                     12 # last data-in to row precharge
CL                                     12 # CAS latency
WL                                      4 # Write latency
nbkgrp                                  1 # number of bank groups
CCDL                                    0 # column to column delay between accesses to different bank groups
RTPL                                    0 # read to precharge delay between accesses to different bank groups
Total number of memory sub partition = 22
addr_dec_mask[CHIP]  = 0000000000000000 	high:64 low:0
addr_dec_mask[BK]    = 0000000000007080 	high:15 low:7
addr_dec_mask[ROW]   = 000000000fff8000 	high:28 low:15
addr_dec_mask[COL]   = 0000000000000f7f 	high:12 low:0
addr_dec_mask[BURST] = 000000000000001f 	high:5 low:0
sub_partition_id_mask = 0000000000000080
GPGPU-Sim uArch: clock freqs: 1481000000.000000:2962000000.000000:1481000000.000000:2750000000.000000
GPGPU-Sim uArch: clock periods: 0.00000000067521944632:0.00000000033760972316:0.00000000067521944632:0.00000000036363636364
*** Initializing Memory Statistics ***
GPGPU-Sim uArch: interconnect node map (shaderID+MemID to icntID)
GPGPU-Sim uArch: Memory nodes ID start from index: 28
GPGPU-Sim uArch:    0   1   2   3   4   5   6
GPGPU-Sim uArch:    7   8   9  10  11  12  13
GPGPU-Sim uArch:   14  15  16  17  18  19  20
GPGPU-Sim uArch:   21  22  23  24  25  26  27
GPGPU-Sim uArch:   28  29  30  31  32  33  34
GPGPU-Sim uArch:   35  36  37  38  39  40  41
GPGPU-Sim uArch:   42  43  44  45  46  47  48
GPGPU-Sim uArch:   49
GPGPU-Sim uArch: interconnect node reverse map (icntID to shaderID+MemID)
GPGPU-Sim uArch: Memory nodes start from ID: 28
GPGPU-Sim uArch:    0   1   2   3   4   5   6
GPGPU-Sim uArch:    7   8   9  10  11  12  13
GPGPU-Sim uArch:   14  15  16  17  18  19  20
GPGPU-Sim uArch:   21  22  23  24  25  26  27
GPGPU-Sim uArch:   28  29  30  31  32  33  34
GPGPU-Sim uArch:   35  36  37  38  39  40  41
GPGPU-Sim uArch:   42  43  44  45  46  47  48
GPGPU-Sim uArch:   49
cf5745cf1abd2a064bd21dd8114faea6  /root/gpgpu-sim_UVMSmart/benchmarks/Managed/FDTD-2D/main
GPGPU-Sim uArch: performance model initialization complete.
GPGPU-Sim PTX: __cudaRegisterFatBinary, fat_cubin_handle = 1, filename=default
self exe links to: /root/gpgpu-sim_UVMSmart/benchmarks/Managed/FDTD-2D/main
Running md5sum using "md5sum /root/gpgpu-sim_UVMSmart/benchmarks/Managed/FDTD-2D/main "
Parsing file _cuobjdump_complete_output_QmR7aj
######### cuobjdump parser ########
## Adding new section ELF
Adding arch: sm_20
Adding identifier: default
## Adding new section ELF
Adding arch: sm_20
Adding identifier: default
## Adding new section PTX
Adding ptx filename: _cuobjdump_1.ptx
Adding arch: sm_20
Adding identifier: default
Done parsing!!!
GPGPU-Sim PTX: __cudaRegisterFunction _Z17fdtd_step3_kernelPfS_S_i : hostFun 0x0x401766, fat_cubin_handle = 1
GPGPU-Sim PTX: instruction assembly for function '_Z17fdtd_step1_kernelPfS_S_S_i'...   done.
GPGPU-Sim PTX: finding reconvergence points for '_Z17fdtd_step1_kernelPfS_S_S_i'...
GPGPU-Sim PTX: Finding dominators for '_Z17fdtd_step1_kernelPfS_S_S_i'...
GPGPU-Sim PTX: Finding immediate dominators for '_Z17fdtd_step1_kernelPfS_S_S_i'...
GPGPU-Sim PTX: Finding postdominators for '_Z17fdtd_step1_kernelPfS_S_S_i'...
GPGPU-Sim PTX: Finding immediate postdominators for '_Z17fdtd_step1_kernelPfS_S_S_i'...
GPGPU-Sim PTX: pre-decoding instructions for '_Z17fdtd_step1_kernelPfS_S_S_i'...
GPGPU-Sim PTX: reconvergence points for _Z17fdtd_step1_kernelPfS_S_S_i...
GPGPU-Sim PTX:  1 (potential) branch divergence @  PC=0x080 (_1.ptx:44) @!%p3 bra BB0_4;
GPGPU-Sim PTX:    immediate post dominator      @  PC=0x150 (_1.ptx:77) ret;
GPGPU-Sim PTX:  2 (potential) branch divergence @  PC=0x088 (_1.ptx:45) bra.uni BB0_1;
GPGPU-Sim PTX:    immediate post dominator      @  PC=0x090 (_1.ptx:48) setp.eq.s32%p4, %r2, 0;
GPGPU-Sim PTX:  3 (potential) branch divergence @  PC=0x098 (_1.ptx:49) @%p4 bra BB0_3;
GPGPU-Sim PTX:    immediate post dominator      @  PC=0x150 (_1.ptx:77) ret;
GPGPU-Sim PTX:  4 (potential) branch divergence @  PC=0x110 (_1.ptx:65) bra.uni BB0_4;
GPGPU-Sim PTX:    immediate post dominator      @  PC=0x150 (_1.ptx:77) ret;
GPGPU-Sim PTX: ... end of reconvergence points for _Z17fdtd_step1_kernelPfS_S_S_i
GPGPU-Sim PTX: ... done pre-decoding instructions for '_Z17fdtd_step1_kernelPfS_S_S_i'.
GPGPU-Sim PTX: instruction assembly for function '_Z17fdtd_step2_kernelPfS_S_i'...   done.
GPGPU-Sim PTX: finding reconvergence points for '_Z17fdtd_step2_kernelPfS_S_i'...
GPGPU-Sim PTX: Finding dominators for '_Z17fdtd_step2_kernelPfS_S_i'...
GPGPU-Sim PTX: Finding immediate dominators for '_Z17fdtd_step2_kernelPfS_S_i'...
GPGPU-Sim PTX: Finding postdominators for '_Z17fdtd_step2_kernelPfS_S_i'...
GPGPU-Sim PTX: Finding immediate postdominators for '_Z17fdtd_step2_kernelPfS_S_i'...
GPGPU-Sim PTX: pre-decoding instructions for '_Z17fdtd_step2_kernelPfS_S_i'...
GPGPU-Sim PTX: reconvergence points for _Z17fdtd_step2_kernelPfS_S_i...
GPGPU-Sim PTX:  1 (potential) branch divergence @  PC=0x1d0 (_1.ptx:109) @!%p5 bra BB1_2;
GPGPU-Sim PTX:    immediate post dominator      @  PC=0x268 (_1.ptx:132) ret;
GPGPU-Sim PTX:  2 (potential) branch divergence @  PC=0x1d8 (_1.ptx:110) bra.uni BB1_1;
GPGPU-Sim PTX:    immediate post dominator      @  PC=0x1e0 (_1.ptx:113) cvta.to.global.u64 %rd3, %rd2;
GPGPU-Sim PTX: ... end of reconvergence points for _Z17fdtd_step2_kernelPfS_S_i
GPGPU-Sim PTX: ... done pre-decoding instructions for '_Z17fdtd_step2_kernelPfS_S_i'.
GPGPU-Sim PTX: instruction assembly for function '_Z17fdtd_step3_kernelPfS_S_i'...   done.
GPGPU-Sim PTX: finding reconvergence points for '_Z17fdtd_step3_kernelPfS_S_i'...
GPGPU-Sim PTX: Finding dominators for '_Z17fdtd_step3_kernelPfS_S_i'...
GPGPU-Sim PTX: Finding immediate dominators for '_Z17fdtd_step3_kernelPfS_S_i'...
GPGPU-Sim PTX: Finding postdominators for '_Z17fdtd_step3_kernelPfS_S_i'...
GPGPU-Sim PTX: Finding immediate postdominators for '_Z17fdtd_step3_kernelPfS_S_i'...
GPGPU-Sim PTX: pre-decoding instructions for '_Z17fdtd_step3_kernelPfS_S_i'...
GPGPU-Sim PTX: reconvergence points for _Z17fdtd_step3_kernelPfS_S_i...
GPGPU-Sim PTX:  1 (potential) branch divergence @  PC=0x2e0 (_1.ptx:163) @!%p3 bra BB2_2;
GPGPU-Sim PTX:    immediate post dominator      @  PC=0x390 (_1.ptx:189) ret;
GPGPU-Sim PTX:  2 (potential) branch divergence @  PC=0x2e8 (_1.ptx:164) bra.uni BB2_1;
GPGPU-Sim PTX:    immediate post dominator      @  PC=0x2f0 (_1.ptx:167) cvta.to.global.u64 %rd4, %rd2;
GPGPU-Sim PTX: ... end of reconvergence points for _Z17fdtd_step3_kernelPfS_S_i
GPGPU-Sim PTX: ... done pre-decoding instructions for '_Z17fdtd_step3_kernelPfS_S_i'.
GPGPU-Sim PTX: finished parsing EMBEDDED .ptx file _1.ptx
Adding _cuobjdump_1.ptx with cubin handle 1
GPGPU-Sim PTX: extracting embedded .ptx to temporary file "_ptx_lLCGZ6"
Running: cat _ptx_lLCGZ6 | sed 's/.version 1.5/.version 1.4/' | sed 's/, texmode_independent//' | sed 's/\(\.extern \.const\[1\] .b8 \w\+\)\[\]/\1\[1\]/' | sed 's/const\[.\]/const\[0\]/g' > _ptx2_iRhgOU
GPGPU-Sim PTX: generating ptxinfo using "$CUDA_INSTALL_PATH/bin/ptxas --gpu-name=sm_20 -v _ptx2_iRhgOU --output-file  /dev/null 2> _ptx_lLCGZ6info"
GPGPU-Sim PTX: Kernel '_Z17fdtd_step2_kernelPfS_S_i' : regs=10, lmem=0, smem=0, cmem=60
GPGPU-Sim PTX: Kernel '_Z17fdtd_step1_kernelPfS_S_S_i' : regs=10, lmem=0, smem=0, cmem=68
GPGPU-Sim PTX: Kernel '_Z17fdtd_step3_kernelPfS_S_i' : regs=12, lmem=0, smem=0, cmem=64
GPGPU-Sim PTX: removing ptxinfo using "rm -f _ptx_lLCGZ6 _ptx2_iRhgOU _ptx_lLCGZ6info"
GPGPU-Sim PTX: loading globals with explicit initializers... 
GPGPU-Sim PTX: finished loading globals (0 bytes total).
GPGPU-Sim PTX: loading constants with explicit initializers...  done.
GPGPU-Sim PTX: __cudaRegisterFunction _Z17fdtd_step2_kernelPfS_S_i : hostFun 0x0x40167f, fat_cubin_handle = 1
GPGPU-Sim PTX: __cudaRegisterFunction _Z17fdtd_step1_kernelPfS_S_S_i : hostFun 0x0x40158c, fat_cubin_handle = 1

GPGPU-Sim PTX: cudaLaunch for 0x0x40158c (mode=performance simulation) on stream 0
GPGPU-Sim PTX: pushing kernel '_Z17fdtd_step1_kernelPfS_S_S_i' to stream 0, gridDim= (38,150,1) blockDim = (32,8,1) 
GPGPU-Sim uArch: Shader 1 bind to kernel 1 '_Z17fdtd_step1_kernelPfS_S_S_i'
GPGPU-Sim uArch: CTA/core = 8, limited by: threads
GPGPU-Sim uArch: Shader 2 bind to kernel 1 '_Z17fdtd_step1_kernelPfS_S_S_i'
GPGPU-Sim uArch: Shader 3 bind to kernel 1 '_Z17fdtd_step1_kernelPfS_S_S_i'
GPGPU-Sim uArch: Shader 4 bind to kernel 1 '_Z17fdtd_step1_kernelPfS_S_S_i'
GPGPU-Sim uArch: Shader 5 bind to kernel 1 '_Z17fdtd_step1_kernelPfS_S_S_i'
GPGPU-Sim uArch: Shader 6 bind to kernel 1 '_Z17fdtd_step1_kernelPfS_S_S_i'
GPGPU-Sim uArch: Shader 7 bind to kernel 1 '_Z17fdtd_step1_kernelPfS_S_S_i'
GPGPU-Sim uArch: Shader 8 bind to kernel 1 '_Z17fdtd_step1_kernelPfS_S_S_i'
GPGPU-Sim uArch: Shader 9 bind to kernel 1 '_Z17fdtd_step1_kernelPfS_S_S_i'
GPGPU-Sim uArch: Shader 10 bind to kernel 1 '_Z17fdtd_step1_kernelPfS_S_S_i'
GPGPU-Sim uArch: Shader 11 bind to kernel 1 '_Z17fdtd_step1_kernelPfS_S_S_i'
GPGPU-Sim uArch: Shader 12 bind to kernel 1 '_Z17fdtd_step1_kernelPfS_S_S_i'
GPGPU-Sim uArch: Shader 13 bind to kernel 1 '_Z17fdtd_step1_kernelPfS_S_S_i'
GPGPU-Sim uArch: Shader 14 bind to kernel 1 '_Z17fdtd_step1_kernelPfS_S_S_i'
GPGPU-Sim uArch: Shader 15 bind to kernel 1 '_Z17fdtd_step1_kernelPfS_S_S_i'
GPGPU-Sim uArch: Shader 16 bind to kernel 1 '_Z17fdtd_step1_kernelPfS_S_S_i'
GPGPU-Sim uArch: Shader 17 bind to kernel 1 '_Z17fdtd_step1_kernelPfS_S_S_i'
GPGPU-Sim uArch: Shader 18 bind to kernel 1 '_Z17fdtd_step1_kernelPfS_S_S_i'
GPGPU-Sim uArch: Shader 19 bind to kernel 1 '_Z17fdtd_step1_kernelPfS_S_S_i'
GPGPU-Sim uArch: Shader 20 bind to kernel 1 '_Z17fdtd_step1_kernelPfS_S_S_i'
GPGPU-Sim uArch: Shader 21 bind to kernel 1 '_Z17fdtd_step1_kernelPfS_S_S_i'
GPGPU-Sim uArch: Shader 22 bind to kernel 1 '_Z17fdtd_step1_kernelPfS_S_S_i'
GPGPU-Sim uArch: Shader 23 bind to kernel 1 '_Z17fdtd_step1_kernelPfS_S_S_i'
GPGPU-Sim uArch: Shader 24 bind to kernel 1 '_Z17fdtd_step1_kernelPfS_S_S_i'
GPGPU-Sim uArch: Shader 25 bind to kernel 1 '_Z17fdtd_step1_kernelPfS_S_S_i'
GPGPU-Sim uArch: Shader 26 bind to kernel 1 '_Z17fdtd_step1_kernelPfS_S_S_i'
GPGPU-Sim uArch: Shader 27 bind to kernel 1 '_Z17fdtd_step1_kernelPfS_S_S_i'
GPGPU-Sim uArch: Shader 0 bind to kernel 1 '_Z17fdtd_step1_kernelPfS_S_S_i'
GPGPU-Sim uArch: Shader 3 bind to kernel 1 '_Z17fdtd_step1_kernelPfS_S_S_i'
GPGPU-Sim uArch: Shader 5 bind to kernel 1 '_Z17fdtd_step1_kernelPfS_S_S_i'
GPGPU-Sim uArch: Shader 6 bind to kernel 1 '_Z17fdtd_step1_kernelPfS_S_S_i'
GPGPU-Sim uArch: Shader 9 bind to kernel 1 '_Z17fdtd_step1_kernelPfS_S_S_i'
GPGPU-Sim uArch: Shader 13 bind to kernel 1 '_Z17fdtd_step1_kernelPfS_S_S_i'
GPGPU-Sim uArch: Shader 16 bind to kernel 1 '_Z17fdtd_step1_kernelPfS_S_S_i'
GPGPU-Sim uArch: Shader 17 bind to kernel 1 '_Z17fdtd_step1_kernelPfS_S_S_i'
GPGPU-Sim uArch: Shader 19 bind to kernel 1 '_Z17fdtd_step1_kernelPfS_S_S_i'
GPGPU-Sim uArch: Shader 21 bind to kernel 1 '_Z17fdtd_step1_kernelPfS_S_S_i'
GPGPU-Sim uArch: Shader 22 bind to kernel 1 '_Z17fdtd_step1_kernelPfS_S_S_i'
GPGPU-Sim uArch: Shader 24 bind to kernel 1 '_Z17fdtd_step1_kernelPfS_S_S_i'
GPGPU-Sim uArch: Shader 26 bind to kernel 1 '_Z17fdtd_step1_kernelPfS_S_S_i'
GPGPU-Sim uArch: Shader 27 bind to kernel 1 '_Z17fdtd_step1_kernelPfS_S_S_i'
GPGPU-Sim uArch: Shader 12 bind to kernel 1 '_Z17fdtd_step1_kernelPfS_S_S_i'
GPGPU-Sim uArch: Shader 6 bind to kernel 1 '_Z17fdtd_step1_kernelPfS_S_S_i'
GPGPU-Sim uArch: Shader 7 bind to kernel 1 '_Z17fdtd_step1_kernelPfS_S_S_i'
GPGPU-Sim uArch: Shader 8 bind to kernel 1 '_Z17fdtd_step1_kernelPfS_S_S_i'
GPGPU-Sim uArch: Shader 9 bind to kernel 1 '_Z17fdtd_step1_kernelPfS_S_S_i'
GPGPU-Sim uArch: Shader 12 bind to kernel 1 '_Z17fdtd_step1_kernelPfS_S_S_i'
GPGPU-Sim uArch: Shader 13 bind to kernel 1 '_Z17fdtd_step1_kernelPfS_S_S_i'
GPGPU-Sim uArch: Shader 14 bind to kernel 1 '_Z17fdtd_step1_kernelPfS_S_S_i'
GPGPU-Sim uArch: Shader 15 bind to kernel 1 '_Z17fdtd_step1_kernelPfS_S_S_i'
GPGPU-Sim uArch: Shader 18 bind to kernel 1 '_Z17fdtd_step1_kernelPfS_S_S_i'
GPGPU-Sim uArch: Shader 19 bind to kernel 1 '_Z17fdtd_step1_kernelPfS_S_S_i'
GPGPU-Sim uArch: Shader 22 bind to kernel 1 '_Z17fdtd_step1_kernelPfS_S_S_i'
GPGPU-Sim uArch: Shader 24 bind to kernel 1 '_Z17fdtd_step1_kernelPfS_S_S_i'
GPGPU-Sim uArch: Shader 26 bind to kernel 1 '_Z17fdtd_step1_kernelPfS_S_S_i'
GPGPU-Sim uArch: Shader 27 bind to kernel 1 '_Z17fdtd_step1_kernelPfS_S_S_i'
GPGPU-Sim uArch: Shader 5 bind to kernel 1 '_Z17fdtd_step1_kernelPfS_S_S_i'
GPGPU-Sim uArch: Shader 6 bind to kernel 1 '_Z17fdtd_step1_kernelPfS_S_S_i'
GPGPU-Sim uArch: Shader 12 bind to kernel 1 '_Z17fdtd_step1_kernelPfS_S_S_i'
GPGPU-Sim uArch: Shader 18 bind to kernel 1 '_Z17fdtd_step1_kernelPfS_S_S_i'
GPGPU-Sim uArch: Shader 23 bind to kernel 1 '_Z17fdtd_step1_kernelPfS_S_S_i'
GPGPU-Sim uArch: Shader 27 bind to kernel 1 '_Z17fdtd_step1_kernelPfS_S_S_i'
GPGPU-Sim uArch: Shader 17 bind to kernel 1 '_Z17fdtd_step1_kernelPfS_S_S_i'
GPGPU-Sim uArch: Shader 18 bind to kernel 1 '_Z17fdtd_step1_kernelPfS_S_S_i'
GPGPU-Sim uArch: Shader 19 bind to kernel 1 '_Z17fdtd_step1_kernelPfS_S_S_i'
GPGPU-Sim uArch: Shader 20 bind to kernel 1 '_Z17fdtd_step1_kernelPfS_S_S_i'
GPGPU-Sim uArch: Shader 21 bind to kernel 1 '_Z17fdtd_step1_kernelPfS_S_S_i'
GPGPU-Sim uArch: Shader 22 bind to kernel 1 '_Z17fdtd_step1_kernelPfS_S_S_i'
GPGPU-Sim uArch: Shader 23 bind to kernel 1 '_Z17fdtd_step1_kernelPfS_S_S_i'
GPGPU-Sim uArch: Shader 24 bind to kernel 1 '_Z17fdtd_step1_kernelPfS_S_S_i'
GPGPU-Sim uArch: Shader 25 bind to kernel 1 '_Z17fdtd_step1_kernelPfS_S_S_i'
GPGPU-Sim uArch: Shader 26 bind to kernel 1 '_Z17fdtd_step1_kernelPfS_S_S_i'
GPGPU-Sim uArch: Shader 27 bind to kernel 1 '_Z17fdtd_step1_kernelPfS_S_S_i'
GPGPU-Sim uArch: Shader 0 bind to kernel 1 '_Z17fdtd_step1_kernelPfS_S_S_i'
GPGPU-Sim uArch: Shader 1 bind to kernel 1 '_Z17fdtd_step1_kernelPfS_S_S_i'
GPGPU-Sim uArch: Shader 2 bind to kernel 1 '_Z17fdtd_step1_kernelPfS_S_S_i'
GPGPU-Sim uArch: Shader 3 bind to kernel 1 '_Z17fdtd_step1_kernelPfS_S_S_i'
GPGPU-Sim uArch: Shader 4 bind to kernel 1 '_Z17fdtd_step1_kernelPfS_S_S_i'
GPGPU-Sim uArch: Shader 5 bind to kernel 1 '_Z17fdtd_step1_kernelPfS_S_S_i'
GPGPU-Sim uArch: Shader 6 bind to kernel 1 '_Z17fdtd_step1_kernelPfS_S_S_i'
GPGPU-Sim uArch: Shader 7 bind to kernel 1 '_Z17fdtd_step1_kernelPfS_S_S_i'
GPGPU-Sim uArch: Shader 8 bind to kernel 1 '_Z17fdtd_step1_kernelPfS_S_S_i'
GPGPU-Sim uArch: Shader 9 bind to kernel 1 '_Z17fdtd_step1_kernelPfS_S_S_i'
GPGPU-Sim uArch: Shader 10 bind to kernel 1 '_Z17fdtd_step1_kernelPfS_S_S_i'
GPGPU-Sim uArch: Shader 11 bind to kernel 1 '_Z17fdtd_step1_kernelPfS_S_S_i'
GPGPU-Sim uArch: Shader 12 bind to kernel 1 '_Z17fdtd_step1_kernelPfS_S_S_i'
GPGPU-Sim uArch: Shader 13 bind to kernel 1 '_Z17fdtd_step1_kernelPfS_S_S_i'
GPGPU-Sim uArch: Shader 14 bind to kernel 1 '_Z17fdtd_step1_kernelPfS_S_S_i'
GPGPU-Sim uArch: Shader 15 bind to kernel 1 '_Z17fdtd_step1_kernelPfS_S_S_i'
GPGPU-Sim uArch: Shader 16 bind to kernel 1 '_Z17fdtd_step1_kernelPfS_S_S_i'
GPGPU-Sim uArch: Shader 23 bind to kernel 1 '_Z17fdtd_step1_kernelPfS_S_S_i'
GPGPU-Sim uArch: Shader 26 bind to kernel 1 '_Z17fdtd_step1_kernelPfS_S_S_i'
GPGPU-Sim uArch: Shader 27 bind to kernel 1 '_Z17fdtd_step1_kernelPfS_S_S_i'
GPGPU-Sim uArch: Shader 3 bind to kernel 1 '_Z17fdtd_step1_kernelPfS_S_S_i'
GPGPU-Sim uArch: Shader 7 bind to kernel 1 '_Z17fdtd_step1_kernelPfS_S_S_i'
GPGPU-Sim uArch: Shader 10 bind to kernel 1 '_Z17fdtd_step1_kernelPfS_S_S_i'
GPGPU-Sim uArch: Shader 12 bind to kernel 1 '_Z17fdtd_step1_kernelPfS_S_S_i'
GPGPU-Sim uArch: Shader 13 bind to kernel 1 '_Z17fdtd_step1_kernelPfS_S_S_i'
GPGPU-Sim uArch: Shader 19 bind to kernel 1 '_Z17fdtd_step1_kernelPfS_S_S_i'
GPGPU-Sim uArch: Shader 7 bind to kernel 1 '_Z17fdtd_step1_kernelPfS_S_S_i'
GPGPU-Sim uArch: Shader 8 bind to kernel 1 '_Z17fdtd_step1_kernelPfS_S_S_i'
GPGPU-Sim uArch: Shader 9 bind to kernel 1 '_Z17fdtd_step1_kernelPfS_S_S_i'
GPGPU-Sim uArch: Shader 11 bind to kernel 1 '_Z17fdtd_step1_kernelPfS_S_S_i'
GPGPU-Sim uArch: Shader 12 bind to kernel 1 '_Z17fdtd_step1_kernelPfS_S_S_i'
GPGPU-Sim uArch: Shader 14 bind to kernel 1 '_Z17fdtd_step1_kernelPfS_S_S_i'
GPGPU-Sim uArch: Shader 16 bind to kernel 1 '_Z17fdtd_step1_kernelPfS_S_S_i'
GPGPU-Sim uArch: Shader 17 bind to kernel 1 '_Z17fdtd_step1_kernelPfS_S_S_i'
GPGPU-Sim uArch: Shader 18 bind to kernel 1 '_Z17fdtd_step1_kernelPfS_S_S_i'
GPGPU-Sim uArch: Shader 19 bind to kernel 1 '_Z17fdtd_step1_kernelPfS_S_S_i'
GPGPU-Sim uArch: Shader 20 bind to kernel 1 '_Z17fdtd_step1_kernelPfS_S_S_i'
GPGPU-Sim uArch: Shader 22 bind to kernel 1 '_Z17fdtd_step1_kernelPfS_S_S_i'
GPGPU-Sim uArch: Shader 23 bind to kernel 1 '_Z17fdtd_step1_kernelPfS_S_S_i'
GPGPU-Sim uArch: Shader 25 bind to kernel 1 '_Z17fdtd_step1_kernelPfS_S_S_i'
GPGPU-Sim uArch: Shader 26 bind to kernel 1 '_Z17fdtd_step1_kernelPfS_S_S_i'
GPGPU-Sim uArch: Shader 27 bind to kernel 1 '_Z17fdtd_step1_kernelPfS_S_S_i'
GPGPU-Sim uArch: Shader 0 bind to kernel 1 '_Z17fdtd_step1_kernelPfS_S_S_i'
GPGPU-Sim uArch: Shader 1 bind to kernel 1 '_Z17fdtd_step1_kernelPfS_S_S_i'
GPGPU-Sim uArch: Shader 3 bind to kernel 1 '_Z17fdtd_step1_kernelPfS_S_S_i'
GPGPU-Sim uArch: Shader 4 bind to kernel 1 '_Z17fdtd_step1_kernelPfS_S_S_i'
GPGPU-Sim uArch: Shader 5 bind to kernel 1 '_Z17fdtd_step1_kernelPfS_S_S_i'
Destroy streams for kernel 1: size 0
kernel_name = _Z17fdtd_step1_kernelPfS_S_S_i 
kernel_launch_uid = 1 
gpu_sim_cycle = 1640894
gpu_sim_insn = 49297200
gpu_ipc =      30.0429
gpu_tot_sim_cycle = 1863044
gpu_tot_sim_insn = 49297200
gpu_tot_ipc =      26.4606
gpu_tot_issued_cta = 5700
max_total_param_size = 0
gpu_stall_dramfull = 235438
gpu_stall_icnt2sh    = 714598
partiton_reqs_in_parallel = 35864230
partiton_reqs_in_parallel_total    = 0
partiton_level_parallism =      21.8565
partiton_level_parallism_total  =      19.2503
partiton_reqs_in_parallel_util = 35864230
partiton_reqs_in_parallel_util_total    = 0
gpu_sim_cycle_parition_util = 1639962
gpu_tot_sim_cycle_parition_util    = 0
partiton_level_parallism_util =      21.8689
partiton_level_parallism_util_total  =      21.8689
partiton_replys_in_parallel = 271199
partiton_replys_in_parallel_total    = 0
L2_BW  =      15.6654 GB/Sec
L2_BW_total  =      13.7975 GB/Sec
gpu_total_sim_rate=30524

========= Core cache stats =========
L1I_cache:
	L1I_total_cache_accesses = 866248
	L1I_total_cache_misses = 1981
	L1I_total_cache_miss_rate = 0.0023
	L1I_total_cache_pending_hits = 0
	L1I_total_cache_reservation_fails = 6846
L1D_cache:
	L1D_cache_core[0]: Access = 0, Miss = 0, Miss_rate = -nan, Pending_hits = 0, Reservation_fails = 0
	L1D_cache_core[1]: Access = 0, Miss = 0, Miss_rate = -nan, Pending_hits = 0, Reservation_fails = 0
	L1D_cache_core[2]: Access = 0, Miss = 0, Miss_rate = -nan, Pending_hits = 0, Reservation_fails = 0
	L1D_cache_core[3]: Access = 0, Miss = 0, Miss_rate = -nan, Pending_hits = 0, Reservation_fails = 0
	L1D_cache_core[4]: Access = 0, Miss = 0, Miss_rate = -nan, Pending_hits = 0, Reservation_fails = 0
	L1D_cache_core[5]: Access = 0, Miss = 0, Miss_rate = -nan, Pending_hits = 0, Reservation_fails = 0
	L1D_cache_core[6]: Access = 0, Miss = 0, Miss_rate = -nan, Pending_hits = 0, Reservation_fails = 0
	L1D_cache_core[7]: Access = 0, Miss = 0, Miss_rate = -nan, Pending_hits = 0, Reservation_fails = 0
	L1D_cache_core[8]: Access = 0, Miss = 0, Miss_rate = -nan, Pending_hits = 0, Reservation_fails = 0
	L1D_cache_core[9]: Access = 0, Miss = 0, Miss_rate = -nan, Pending_hits = 0, Reservation_fails = 0
	L1D_cache_core[10]: Access = 0, Miss = 0, Miss_rate = -nan, Pending_hits = 0, Reservation_fails = 0
	L1D_cache_core[11]: Access = 0, Miss = 0, Miss_rate = -nan, Pending_hits = 0, Reservation_fails = 0
	L1D_cache_core[12]: Access = 0, Miss = 0, Miss_rate = -nan, Pending_hits = 0, Reservation_fails = 0
	L1D_cache_core[13]: Access = 0, Miss = 0, Miss_rate = -nan, Pending_hits = 0, Reservation_fails = 0
	L1D_cache_core[14]: Access = 0, Miss = 0, Miss_rate = -nan, Pending_hits = 0, Reservation_fails = 0
	L1D_cache_core[15]: Access = 0, Miss = 0, Miss_rate = -nan, Pending_hits = 0, Reservation_fails = 0
	L1D_cache_core[16]: Access = 0, Miss = 0, Miss_rate = -nan, Pending_hits = 0, Reservation_fails = 0
	L1D_cache_core[17]: Access = 0, Miss = 0, Miss_rate = -nan, Pending_hits = 0, Reservation_fails = 0
	L1D_cache_core[18]: Access = 0, Miss = 0, Miss_rate = -nan, Pending_hits = 0, Reservation_fails = 0
	L1D_cache_core[19]: Access = 0, Miss = 0, Miss_rate = -nan, Pending_hits = 0, Reservation_fails = 0
	L1D_cache_core[20]: Access = 0, Miss = 0, Miss_rate = -nan, Pending_hits = 0, Reservation_fails = 0
	L1D_cache_core[21]: Access = 0, Miss = 0, Miss_rate = -nan, Pending_hits = 0, Reservation_fails = 0
	L1D_cache_core[22]: Access = 0, Miss = 0, Miss_rate = -nan, Pending_hits = 0, Reservation_fails = 0
	L1D_cache_core[23]: Access = 0, Miss = 0, Miss_rate = -nan, Pending_hits = 0, Reservation_fails = 0
	L1D_cache_core[24]: Access = 0, Miss = 0, Miss_rate = -nan, Pending_hits = 0, Reservation_fails = 0
	L1D_cache_core[25]: Access = 0, Miss = 0, Miss_rate = -nan, Pending_hits = 0, Reservation_fails = 0
	L1D_cache_core[26]: Access = 0, Miss = 0, Miss_rate = -nan, Pending_hits = 0, Reservation_fails = 0
	L1D_cache_core[27]: Access = 0, Miss = 0, Miss_rate = -nan, Pending_hits = 0, Reservation_fails = 0
	L1D_total_cache_accesses = 0
	L1D_total_cache_misses = 0
	L1D_total_cache_pending_hits = 0
	L1D_total_cache_reservation_fails = 0
	L1D_cache_data_port_util = 0.000
	L1D_cache_fill_port_util = 0.000
L1C_cache:
	L1C_total_cache_accesses = 182400
	L1C_total_cache_misses = 1792
	L1C_total_cache_miss_rate = 0.0098
	L1C_total_cache_pending_hits = 0
	L1C_total_cache_reservation_fails = 4886
L1T_cache:
	L1T_total_cache_accesses = 0
	L1T_total_cache_misses = 0
	L1T_total_cache_pending_hits = 0
	L1T_total_cache_reservation_fails = 0

Total_core_cache_stats:
	Total_core_cache_stats_breakdown[GLOBAL_ACC_R][HIT] = 0
	Total_core_cache_stats_breakdown[GLOBAL_ACC_R][HIT_RESERVED] = 0
	Total_core_cache_stats_breakdown[GLOBAL_ACC_R][MISS] = 0
	Total_core_cache_stats_breakdown[GLOBAL_ACC_R][RESERVATION_FAIL] = 0
	Total_core_cache_stats_breakdown[LOCAL_ACC_R][HIT] = 0
	Total_core_cache_stats_breakdown[LOCAL_ACC_R][HIT_RESERVED] = 0
	Total_core_cache_stats_breakdown[LOCAL_ACC_R][MISS] = 0
	Total_core_cache_stats_breakdown[LOCAL_ACC_R][RESERVATION_FAIL] = 0
	Total_core_cache_stats_breakdown[CONST_ACC_R][HIT] = 180608
	Total_core_cache_stats_breakdown[CONST_ACC_R][HIT_RESERVED] = 0
	Total_core_cache_stats_breakdown[CONST_ACC_R][MISS] = 1792
	Total_core_cache_stats_breakdown[CONST_ACC_R][RESERVATION_FAIL] = 4886
	Total_core_cache_stats_breakdown[TEXTURE_ACC_R][HIT] = 0
	Total_core_cache_stats_breakdown[TEXTURE_ACC_R][HIT_RESERVED] = 0
	Total_core_cache_stats_breakdown[TEXTURE_ACC_R][MISS] = 0
	Total_core_cache_stats_breakdown[TEXTURE_ACC_R][RESERVATION_FAIL] = 0
	Total_core_cache_stats_breakdown[GLOBAL_ACC_W][HIT] = 0
	Total_core_cache_stats_breakdown[GLOBAL_ACC_W][HIT_RESERVED] = 0
	Total_core_cache_stats_breakdown[GLOBAL_ACC_W][MISS] = 0
	Total_core_cache_stats_breakdown[GLOBAL_ACC_W][RESERVATION_FAIL] = 0
	Total_core_cache_stats_breakdown[LOCAL_ACC_W][HIT] = 0
	Total_core_cache_stats_breakdown[LOCAL_ACC_W][HIT_RESERVED] = 0
	Total_core_cache_stats_breakdown[LOCAL_ACC_W][MISS] = 0
	Total_core_cache_stats_breakdown[LOCAL_ACC_W][RESERVATION_FAIL] = 0
	Total_core_cache_stats_breakdown[L1_WRBK_ACC][HIT] = 0
	Total_core_cache_stats_breakdown[L1_WRBK_ACC][HIT_RESERVED] = 0
	Total_core_cache_stats_breakdown[L1_WRBK_ACC][MISS] = 0
	Total_core_cache_stats_breakdown[L1_WRBK_ACC][RESERVATION_FAIL] = 0
	Total_core_cache_stats_breakdown[L2_WRBK_ACC][HIT] = 0
	Total_core_cache_stats_breakdown[L2_WRBK_ACC][HIT_RESERVED] = 0
	Total_core_cache_stats_breakdown[L2_WRBK_ACC][MISS] = 0
	Total_core_cache_stats_breakdown[L2_WRBK_ACC][RESERVATION_FAIL] = 0
	Total_core_cache_stats_breakdown[INST_ACC_R][HIT] = 864267
	Total_core_cache_stats_breakdown[INST_ACC_R][HIT_RESERVED] = 0
	Total_core_cache_stats_breakdown[INST_ACC_R][MISS] = 1981
	Total_core_cache_stats_breakdown[INST_ACC_R][RESERVATION_FAIL] = 6846
	Total_core_cache_stats_breakdown[L1_WR_ALLOC_R][HIT] = 0
	Total_core_cache_stats_breakdown[L1_WR_ALLOC_R][HIT_RESERVED] = 0
	Total_core_cache_stats_breakdown[L1_WR_ALLOC_R][MISS] = 0
	Total_core_cache_stats_breakdown[L1_WR_ALLOC_R][RESERVATION_FAIL] = 0
	Total_core_cache_stats_breakdown[L2_WR_ALLOC_R][HIT] = 0
	Total_core_cache_stats_breakdown[L2_WR_ALLOC_R][HIT_RESERVED] = 0
	Total_core_cache_stats_breakdown[L2_WR_ALLOC_R][MISS] = 0
	Total_core_cache_stats_breakdown[L2_WR_ALLOC_R][RESERVATION_FAIL] = 0
	Total_core_cache_stats_breakdown[CONST_ACC_R][TOTAL_ACCESS] = 182400
	Total_core_cache_stats_breakdown[INST_ACC_R][TOTAL_ACCESS] = 866248
Shader 0 warp_id issue ditsribution:
warp_id:
0, 1, 2, 3, 4, 5, 6, 7, 8, 9, 10, 11, 12, 13, 14, 15, 16, 17, 18, 19, 20, 21, 22, 23, 24, 25, 26, 27, 28, 29, 30, 31, 32, 33, 34, 35, 36, 37, 38, 39, 40, 41, 42, 43, 44, 45, 46, 47, 48, 49, 50, 51, 52, 53, 54, 55, 56, 57, 58, 59, 60, 61, 62, 63, 
distro:
1352, 1357, 1360, 1357, 1359, 1359, 1358, 1356, 1269, 1263, 1269, 1266, 1269, 1266, 1267, 1259, 1227, 1219, 1228, 1222, 1226, 1222, 1228, 1215, 1185, 1178, 1183, 1177, 1182, 1175, 1181, 1177, 1006, 1001, 1007, 1000, 1007, 997, 1007, 1004, 1054, 1039, 1053, 1042, 1050, 1047, 1048, 1039, 966, 958, 962, 954, 965, 955, 962, 954, 1008, 1002, 1008, 1002, 1006, 1003, 1009, 1003, 
gpgpu_n_tot_thrd_icount = 52521472
gpgpu_n_tot_w_icount = 1641296
gpgpu_n_stall_shd_mem = 579713
gpgpu_n_mem_read_local = 0
gpgpu_n_mem_write_local = 0
gpgpu_n_mem_read_global = 203287
gpgpu_n_mem_write_global = 67800
gpgpu_n_mem_texture = 0
gpgpu_n_mem_const = 28
gpgpu_n_load_insn  = 4317600
gpgpu_n_store_insn = 1440000
gpgpu_n_shmem_insn = 0
gpgpu_n_tex_insn = 0
gpgpu_n_const_mem_insn = 0
gpgpu_n_param_mem_insn = 5836800
gpgpu_n_shmem_bkconflict = 0
gpgpu_n_cache_bkconflict = 0
gpgpu_n_intrawarp_mshr_merge = 0
gpgpu_n_cmem_portconflict = 4886
gpgpu_stall_shd_mem[c_mem][bk_conf] = 4886
gpgpu_stall_shd_mem[c_mem][mshr_rc] = 0
gpgpu_stall_shd_mem[c_mem][icnt_rc] = 0
gpgpu_stall_shd_mem[c_mem][data_port_stall] = 0
gpgpu_stall_shd_mem[t_mem][mshr_rc] = 0
gpgpu_stall_shd_mem[t_mem][icnt_rc] = 0
gpgpu_stall_shd_mem[t_mem][data_port_stall] = 0
gpgpu_stall_shd_mem[s_mem][bk_conf] = 0
gpgpu_stall_shd_mem[gl_mem][bk_conf] = 0
gpgpu_stall_shd_mem[gl_mem][coal_stall] = 404124
gpgpu_stall_shd_mem[gl_mem][data_port_stall] = 0
gpgpu_stall_shd_mem[g_mem_ld][mshr_rc] = 0
gpgpu_stall_shd_mem[g_mem_ld][icnt_rc] = 170703
gpgpu_stall_shd_mem[g_mem_ld][wb_icnt_rc] = 0
gpgpu_stall_shd_mem[g_mem_ld][wb_rsrv_fail] = 0
gpgpu_stall_shd_mem[g_mem_st][mshr_rc] = 0
gpgpu_stall_shd_mem[g_mem_st][icnt_rc] = 0
gpgpu_stall_shd_mem[g_mem_st][wb_icnt_rc] = 0
gpgpu_stall_shd_mem[g_mem_st][wb_rsrv_fail] = 0
gpgpu_stall_shd_mem[l_mem_ld][mshr_rc] = 0
gpgpu_stall_shd_mem[l_mem_ld][icnt_rc] = 0
gpgpu_stall_shd_mem[l_mem_ld][wb_icnt_rc] = 0
gpgpu_stall_shd_mem[l_mem_ld][wb_rsrv_fail] = 0
gpgpu_stall_shd_mem[l_mem_st][mshr_rc] = 0
gpgpu_stall_shd_mem[l_mem_st][icnt_rc] = 0
gpgpu_stall_shd_mem[l_mem_ld][wb_icnt_rc] = 0
gpgpu_stall_shd_mem[l_mem_ld][wb_rsrv_fail] = 0
gpu_reg_bank_conflict_stalls = 0
Warp Occupancy Distribution:
Stall:326051	W0_Idle:33106166	W0_Scoreboard:57159876	W1:0	W2:0	W3:0	W4:0	W5:0	W6:0	W7:0	W8:0	W9:0	W10:0	W11:0	W12:0	W13:0	W14:0	W15:0	W16:21592	W17:0	W18:0	W19:0	W20:0	W21:0	W22:0	W23:0	W24:0	W25:0	W26:0	W27:0	W28:0	W29:0	W30:0	W31:0	W32:1619704
traffic_breakdown_coretomem[CONST_ACC_R] = 224 {8:28,}
traffic_breakdown_coretomem[GLOBAL_ACC_R] = 1626296 {8:203287,}
traffic_breakdown_coretomem[GLOBAL_ACC_W] = 6302400 {72:45600,136:22200,}
traffic_breakdown_coretomem[INST_ACC_R] = 672 {8:84,}
traffic_breakdown_memtocore[CONST_ACC_R] = 2016 {72:28,}
traffic_breakdown_memtocore[GLOBAL_ACC_R] = 18893112 {40:38,72:136723,136:66526,}
traffic_breakdown_memtocore[GLOBAL_ACC_W] = 542400 {8:67800,}
traffic_breakdown_memtocore[INST_ACC_R] = 11424 {136:84,}
maxmrqlatency = 870 
maxdqlatency = 0 
maxmflatency = 244562 
averagemflatency = 4673 
max_icnt2mem_latency = 244308 
max_icnt2sh_latency = 1863043 
mrq_lat_table:28011 	2097 	3059 	5096 	9255 	12896 	18657 	22544 	19568 	2431 	0 	0 	0 	0 	0 	0 	0 	0 	0 	0 	0 	0 	0 	0 	0 	0 	0 	0 	0 	0 	0 	0 	
dq_lat_table:0 	0 	0 	0 	0 	0 	0 	0 	0 	0 	0 	0 	0 	0 	0 	0 	0 	0 	0 	0 	0 	0 	0 	0 	0 	0 	0 	0 	0 	0 	0 	0 	
mf_lat_table:0 	0 	0 	0 	0 	0 	0 	76392 	71906 	81877 	8292 	1311 	1139 	5465 	8847 	15304 	470 	112 	0 	0 	0 	0 	0 	0 	0 	0 	0 	0 	0 	0 	0 	0 	
icnt2mem_lat_table:0 	0 	39848 	24273 	21591 	9427 	54151 	41178 	31406 	16611 	68 	1309 	1140 	5464 	8848 	15426 	347 	112 	0 	0 	0 	0 	0 	0 	
icnt2sh_lat_table:0 	0 	43547 	89100 	65542 	5044 	82 	0 	0 	0 	0 	0 	0 	0 	0 	0 	0 	0 	12284 	18602 	36914 	0 	0 	0 	
mf_lat_pw_table:0 	0 	0 	0 	0 	0 	0 	33 	60 	37 	4 	13 	12 	18 	27 	24 	7 	0 	0 	0 	0 	0 	0 	0 	0 	0 	0 	0 	0 	0 	0 	0 	
maximum concurrent accesses to same row:
dram[0]:        16        16        16        16        16        16        17        17        16        16        16        16        16        16        16        16 
dram[1]:        16        16        16        16        16        16        17        17        16        16        16        16        16        16        16        16 
dram[2]:        16        16        16        16        16        16        17        17        16        16        16        16        16        16        16        16 
dram[3]:        16        16        16        16        16        16        16        16        16        16        16        16        16        16        16        16 
dram[4]:        16        16        16        16        16        16        16        16        16        16        16        16        16        16        16        16 
dram[5]:        16        16        16        16        16        16        16        16        16        16        16        16        16        16        16        16 
dram[6]:        16        16        16        16        16        16        16        16        16        16        16        16        16        16        16        16 
dram[7]:        16        16        16        16        16        16        16        16        16        16        16        16        16        16        16        16 
dram[8]:        16        16        16        16        16        16        16        16        16        16        16        16        16        16        16        16 
dram[9]:        16        16        16        16        16        16        16        16        16        16        16        16        16        16        16        16 
dram[10]:        16        16        16        16        16        16        16        16        16        16        16        16        16        16        16        16 
maximum service time to same row:
dram[0]:    253393    253341    253630    253365    253261    253234    254995    255011    254745    254693    254513    254361    250647    250617    253411    253705 
dram[1]:    253486    253470    253462    253462    253254    253043    255104    255002    254907    254693    254229    254283    250644    253210    253788    253913 
dram[2]:    253417    253425    253310    253370    253204    253264    254965    254973    254682    254811    254316    254377    250544    250855    253701    253841 
dram[3]:    253484    253453    253444    253495    253126    253248    255131    254920    254969    254679    254541    254241    250668    250990    254059    253962 
dram[4]:    253356    253482    253389    253446    253308    253433    254899    254933    254847    254831    254389    254445    250781    253648    253762    254084 
dram[5]:    253413    253405    253318    253613    253227    253341    255018    255050    254638    254706    254360    254573    253379    250800    253867    253455 
dram[6]:    253355    253485    253730    253731    253174    253199    254986    254982    254677    254819    254184    254172    250778    250740    253781    253950 
dram[7]:    253357    253430    253401    253451    253176    253208    254884    254533    254779    254878    254466    254542    250872    250702    253713    253664 
dram[8]:    253395    253480    253736    253407    253159    253262    254999    255005    254705    254737    254583    254506    250833    250757    253517    253485 
dram[9]:    253455    253420    253642    253366    253256    253293    255122    255032    254809    254818    254254    254207    251815    250618    253686    254057 
dram[10]:    253475    253384    253465    253378    253258    253190    254962    254971    254763    254888    254258    254498    251008    250553    253941    253951 
average row accesses per activate:
dram[0]:  5.826446  6.400000  6.458715  7.111111  7.144330  7.071429  6.579439  6.230089  6.342342  6.518518  6.579439  6.704762  6.267857  6.622642  5.966102  6.458715 
dram[1]:  6.641510  6.400000  6.285714  6.704762  6.078948  6.537736  6.230089  6.641510  6.458715  7.333333  6.238938  6.518518  6.750000  7.468085  5.915967  6.518518 
dram[2]:  6.068965  6.518518  5.966102  7.257732  6.718447  6.178571  5.966102  6.467890  6.121739  6.342342  6.704762  6.518518  7.226804  7.619565  5.966102  6.579439 
dram[3]:  6.230089  6.068965  6.769231  7.111111  7.061224  7.208333  6.970297  6.342342  6.579439  6.834951  6.458715  6.834951  6.315315  6.805825  5.866667  6.342342 
dram[4]:  6.342342  6.769231  6.641510  6.641510  6.989899  6.989899  5.866667  5.966102  6.230089  6.641510  6.518518  6.704762  6.095652  7.537634  6.527778  6.778846 
dram[5]:  6.121739  6.641510  6.704762  7.040000  6.234234  6.407407  5.866667  6.068965  7.040000  6.518518  6.769231  6.769231  7.153061  7.788889  5.551181  6.641510 
dram[6]:  5.677419  6.175438  6.704762  6.834951  6.609524  6.609524  6.230089  6.458715  6.121739  6.400000  5.915967  6.068965  7.080808  7.537634  6.230089  6.518518 
dram[7]:  5.966102  6.285714  6.518518  6.970297  7.229167  6.609524  6.017094  6.342342  6.285714  6.068965  6.704762  6.458715  6.372727  7.378947  6.068965  6.400000 
dram[8]:  6.017094  6.769231  6.518518  6.400000  6.803922  6.547170  6.342342  5.543307  6.518518  6.641510  6.458715  7.333333  7.020000  6.882353  5.293233  6.175438 
dram[9]:  6.175438  6.834951  7.333333  6.901961  6.609524  6.425926  6.458715  6.641510  6.017094  6.769231  6.579439  7.111111  7.630435  7.548387  6.641510  6.458715 
dram[10]:  6.068965  6.017094  6.641510  6.970297  6.196429  6.609524  5.866667  6.400000  6.068965  6.579439  6.518518  6.342342  6.622642  6.815534  5.915967  5.632000 
average row locality = 123614/19022 = 6.498476
number of total memory accesses made:
dram[0]:         0         0         0         0         0         0         0         0         0         0         0         0         0         0         0         0 
dram[1]:         0         0         0         0         0         0         0         0         0         0         0         0         0         0         0         0 
dram[2]:         0         0         0         0         0         0         0         0         0         0         0         0         0         0         0         0 
dram[3]:         0         0         0         0         0         0         0         0         0         0         0         0         0         0         0         0 
dram[4]:         0         0         0         0         0         0         0         0         0         0         0         0         0         0         0         0 
dram[5]:         0         0         0         0         0         0         0         0         0         0         0         0         0         0         0         0 
dram[6]:         0         0         0         0         0         0         0         0         0         0         0         0         0         0         0         0 
dram[7]:         0         0         0         0         0         0         0         0         0         0         0         0         0         0         0         0 
dram[8]:         0         0         0         0         0         0         0         0         0         0         0         0         0         0         0         0 
dram[9]:         0         0         0         0         0         0         0         0         0         0         0         0         0         0         0         0 
dram[10]:         0         0         0         0         0         0         0         0         0         0         0         0         0         0         0         0 
total accesses: 0
min_bank_accesses = 0!
min_chip_accesses = 0!
number of total read accesses:
dram[0]:       513       512       512       512       509       509       512       512       512       512       512       512       510       510       512       512 
dram[1]:       512       512       512       512       509       509       512       512       512       512       513       512       510       510       512       512 
dram[2]:       512       512       512       512       509       509       512       512       512       512       512       512       509       509       512       512 
dram[3]:       512       512       512       512       509       509       512       512       512       512       512       512       509       509       512       512 
dram[4]:       512       512       512       512       509       509       512       512       512       512       512       512       509       509       513       513 
dram[5]:       512       512       512       512       509       509       512       512       512       512       512       512       509       509       513       512 
dram[6]:       512       512       512       512       510       510       512       512       512       512       512       512       509       509       512       512 
dram[7]:       512       512       512       512       510       510       512       512       512       512       512       512       509       509       512       512 
dram[8]:       512       512       512       512       510       510       512       512       512       512       512       512       510       510       512       512 
dram[9]:       512       512       512       512       510       510       512       512       512       512       512       512       510       510       512       512 
dram[10]:       512       512       512       512       510       510       512       512       512       512       512       512       510       510       512       512 
total reads: 90005
bank skew: 513/509 = 1.01
chip skew: 8184/8180 = 1.00
number of total write accesses:
dram[0]:       192       192       192       192       184       184       192       192       192       192       192       192       192       192       192       192 
dram[1]:       192       192       192       192       184       184       192       192       192       192       192       192       192       192       192       192 
dram[2]:       192       192       192       192       183       183       192       193       192       192       192       192       192       192       192       192 
dram[3]:       192       192       192       192       183       183       192       192       192       192       192       192       192       192       192       192 
dram[4]:       192       192       192       192       183       183       192       192       192       192       192       192       192       192       192       192 
dram[5]:       192       192       192       192       183       183       192       192       192       192       192       192       192       192       192       192 
dram[6]:       192       192       192       192       184       184       192       192       192       192       192       192       192       192       192       192 
dram[7]:       192       192       192       192       184       184       192       192       192       192       192       192       192       192       192       192 
dram[8]:       192       192       192       192       184       184       192       192       192       192       192       192       192       192       192       192 
dram[9]:       192       192       192       192       184       184       192       192       192       192       192       192       192       192       192       192 
dram[10]:       192       192       192       192       184       184       192       192       192       192       192       192       192       192       192       192 
total reads: 33609
bank skew: 193/183 = 1.05
chip skew: 3056/3054 = 1.00
average mf latency per bank:
dram[0]:       7216      7165     10132     10230     15511     15694      9818     10278      8436      8503     10762     10637      8756      8769     10460     10397
dram[1]:       7078      7194     10186     10378     14962     14285     10407     10611      8399      8423     11856     10890      8658      8739     10459     10736
dram[2]:       7360      7375     10366     10195     14391     14331     10670     10777      8373      8309     10831     10991      8894      8859     10519     10491
dram[3]:       7170      7265     10240     10382     14416     14906     10759     10902      8426      8547     10838     10912      8877      8886     10566     10633
dram[4]:       7040      6874     10472     10546     15468     15009     10812     10594      8579      8451     10812     10872      8799      8970     10268     10297
dram[5]:       7025      7203     10388     10476     14959     14509     10821     10940      8353      8415     10739     10628      8890      8895     10089     10045
dram[6]:       7596      7283     10445     10285     14249     14671     10952     10627      8454      8327     10800     10756      8829      8790     10356     10554
dram[7]:       7489      7342     10348     10282     15198     15282     10692     10376      8407      8286     10679     10663      8806      8858     10571     10699
dram[8]:       7338      7630     10368     10366     14943     15147     10323     10472      8362      8425     10828     10733      9095      9091     10709     10427
dram[9]:       7541      7531     10374     10242     14696     14875     10313     10022      8346      8306     10743     10622      9001      9056     11107     11077
dram[10]:       7670      7749     10268     10299     15414     15424      9978      9723      8400      8619     10784     10927      9072      8967     10832     10531
maximum mf latency per bank:
dram[0]:     123561    123686     63549     63621    244535    244556     72141     72199     65280     65265    123785    123833     65540     65239     65150    123556
dram[1]:     123687    123576     63520     63433    244544    244544     72131     72188     65274     65274    123799    123842     65474     65248    123671    123669
dram[2]:     123699    123700     63482     63537    244533    244550     72131    125641     65712     65264    123789    123842     65434     65361    123669    123674
dram[3]:     123684    123695     63562     63588    244544    244542    126067    126100     65268     65272    123785    123838     65521     65440    123672    123678
dram[4]:     123568     63903     63548     63568    244529    244537    126101    126073     65749     65263    123794    123839     65555     65228    123675    123677
dram[5]:     123570    123696     63521     63613    244534    244544    126110    126097     65700     65282    123798    123779     65527     65387    123670    123679
dram[6]:     123696    123570     63508     63525    244516    244512    126113    126106     65757     65287    123780    123807     65571     65580    123675    123681
dram[7]:     123689    123575     63556     63604    244533    244539    126112    126120     65678     65610    123777    123826     65459     65610    123676    123212
dram[8]:      63852    123572     63439     63528    244525    244530    126047    126123     65708     65260    123795    123784     65502     65504    123213    123212
dram[9]:     123701    123682     63515     63459    244531    244539    126082     72189     65271     65303    123784    123817     65470     65490    244286    244295
dram[10]:     123699    123687     63493     63520    244533    244562     72122     72173     65270     65431    123804    123822     65522     65595    244284    244288
Memory Partition 0: 
Cache L2_bank_000:
MSHR contents

Cache L2_bank_001:
MSHR contents

In Dram Latency Queue (total = 0): 
DRAM[0]: 16 bks, busW=4 BL=8 CL=12, tRRD=2 tCCD=6, tRCD=12 tRAS=28 tRP=12 tRC=40
n_cmd=3046898 n_nop=2998496 n_act=1731 n_pre=1715 n_req=11239 n_rd=32732 n_write=12224 bw_util=0.02951
n_activity=100650 dram_eff=0.8933
bk0: 2052a 3011699i bk1: 2048a 3010078i bk2: 2048a 3014433i bk3: 2048a 3013198i bk4: 2036a 3014779i bk5: 2036a 3014421i bk6: 2048a 3013052i bk7: 2048a 3010374i bk8: 2048a 3014026i bk9: 2048a 3011164i bk10: 2048a 3012854i bk11: 2048a 3010615i bk12: 2040a 3009544i bk13: 2040a 3009041i bk14: 2048a 3007950i bk15: 2048a 3006870i 
dram_util_bins: 0 0 0 0 0 0 0 0 0 0
dram_eff_bins: 0 0 0 0 0 0 0 0 0 0
mrqq: max=64 avg=0.824048
Memory Partition 1: 
Cache L2_bank_002:
MSHR contents

Cache L2_bank_003:
MSHR contents

In Dram Latency Queue (total = 0): 
DRAM[1]: 16 bks, busW=4 BL=8 CL=12, tRRD=2 tCCD=6, tRCD=12 tRAS=28 tRP=12 tRC=40
n_cmd=3046898 n_nop=2998512 n_act=1723 n_pre=1707 n_req=11239 n_rd=32732 n_write=12224 bw_util=0.02951
n_activity=100049 dram_eff=0.8987
bk0: 2048a 3013121i bk1: 2048a 3011460i bk2: 2048a 3010471i bk3: 2048a 3012410i bk4: 2036a 3014707i bk5: 2036a 3013848i bk6: 2048a 3012947i bk7: 2048a 3011611i bk8: 2048a 3011491i bk9: 2048a 3012178i bk10: 2052a 3012373i bk11: 2048a 3011576i bk12: 2040a 3010487i bk13: 2040a 3011401i bk14: 2048a 3008004i bk15: 2048a 3008752i 
dram_util_bins: 0 0 0 0 0 0 0 0 0 0
dram_eff_bins: 0 0 0 0 0 0 0 0 0 0
mrqq: max=64 avg=0.834453
Memory Partition 2: 
Cache L2_bank_004:
MSHR contents

Cache L2_bank_005:
MSHR contents

In Dram Latency Queue (total = 0): 
DRAM[2]: 16 bks, busW=4 BL=8 CL=12, tRRD=2 tCCD=6, tRCD=12 tRAS=28 tRP=12 tRC=40
n_cmd=3046898 n_nop=2998508 n_act=1734 n_pre=1718 n_req=11235 n_rd=32720 n_write=12218 bw_util=0.0295
n_activity=100521 dram_eff=0.8941
bk0: 2048a 3010220i bk1: 2048a 3012138i bk2: 2048a 3012825i bk3: 2048a 3010680i bk4: 2036a 3014758i bk5: 2036a 3011916i bk6: 2048a 3013911i bk7: 2048a 3011002i bk8: 2048a 3010444i bk9: 2048a 3010925i bk10: 2048a 3012520i bk11: 2048a 3009577i bk12: 2036a 3011714i bk13: 2036a 3011284i bk14: 2048a 3006226i bk15: 2048a 3005195i 
dram_util_bins: 0 0 0 0 0 0 0 0 0 0
dram_eff_bins: 0 0 0 0 0 0 0 0 0 0
mrqq: max=64 avg=0.853451
Memory Partition 3: 
Cache L2_bank_006:
MSHR contents

Cache L2_bank_007:
MSHR contents

In Dram Latency Queue (total = 0): 
DRAM[3]: 16 bks, busW=4 BL=8 CL=12, tRRD=2 tCCD=6, tRCD=12 tRAS=28 tRP=12 tRC=40
n_cmd=3046898 n_nop=2998568 n_act=1705 n_pre=1689 n_req=11234 n_rd=32720 n_write=12216 bw_util=0.0295
n_activity=100301 dram_eff=0.896
bk0: 2048a 3012702i bk1: 2048a 3010793i bk2: 2048a 3012708i bk3: 2048a 3012497i bk4: 2036a 3014923i bk5: 2036a 3013062i bk6: 2048a 3015398i bk7: 2048a 3012426i bk8: 2048a 3012041i bk9: 2048a 3010683i bk10: 2048a 3010227i bk11: 2048a 3011317i bk12: 2036a 3009899i bk13: 2036a 3009826i bk14: 2048a 3008108i bk15: 2048a 3005058i 
dram_util_bins: 0 0 0 0 0 0 0 0 0 0
dram_eff_bins: 0 0 0 0 0 0 0 0 0 0
mrqq: max=64 avg=0.851879
Memory Partition 4: 
Cache L2_bank_008:
MSHR contents

Cache L2_bank_009:
MSHR contents

In Dram Latency Queue (total = 0): 
DRAM[4]: 16 bks, busW=4 BL=8 CL=12, tRRD=2 tCCD=6, tRCD=12 tRAS=28 tRP=12 tRC=40
n_cmd=3046898 n_nop=2998540 n_act=1715 n_pre=1699 n_req=11236 n_rd=32728 n_write=12216 bw_util=0.0295
n_activity=100270 dram_eff=0.8965
bk0: 2048a 3013047i bk1: 2048a 3012648i bk2: 2048a 3010270i bk3: 2048a 3010957i bk4: 2036a 3011502i bk5: 2036a 3011366i bk6: 2048a 3010411i bk7: 2048a 3011268i bk8: 2048a 3013946i bk9: 2048a 3012948i bk10: 2048a 3013399i bk11: 2048a 3011165i bk12: 2036a 3007904i bk13: 2036a 3009278i bk14: 2052a 3007371i bk15: 2052a 3007805i 
dram_util_bins: 0 0 0 0 0 0 0 0 0 0
dram_eff_bins: 0 0 0 0 0 0 0 0 0 0
mrqq: max=64 avg=0.851551
Memory Partition 5: 
Cache L2_bank_010:
MSHR contents

Cache L2_bank_011:
MSHR contents

In Dram Latency Queue (total = 0): 
DRAM[5]: 16 bks, busW=4 BL=8 CL=12, tRRD=2 tCCD=6, tRCD=12 tRAS=28 tRP=12 tRC=40
n_cmd=3046898 n_nop=2998538 n_act=1718 n_pre=1702 n_req=11235 n_rd=32724 n_write=12216 bw_util=0.0295
n_activity=100311 dram_eff=0.896
bk0: 2048a 3010367i bk1: 2048a 3013251i bk2: 2048a 3012935i bk3: 2048a 3010962i bk4: 2036a 3015226i bk5: 2036a 3012605i bk6: 2048a 3011543i bk7: 2048a 3010600i bk8: 2048a 3013837i bk9: 2048a 3011833i bk10: 2048a 3011108i bk11: 2048a 3010581i bk12: 2036a 3011789i bk13: 2036a 3009352i bk14: 2052a 3006283i bk15: 2048a 3008139i 
dram_util_bins: 0 0 0 0 0 0 0 0 0 0
dram_eff_bins: 0 0 0 0 0 0 0 0 0 0
mrqq: max=64 avg=0.847881
Memory Partition 6: 
Cache L2_bank_012:
MSHR contents

Cache L2_bank_013:
MSHR contents

In Dram Latency Queue (total = 0): 
DRAM[6]: 16 bks, busW=4 BL=8 CL=12, tRRD=2 tCCD=6, tRCD=12 tRAS=28 tRP=12 tRC=40
n_cmd=3046898 n_nop=2998460 n_act=1751 n_pre=1735 n_req=11238 n_rd=32728 n_write=12224 bw_util=0.02951
n_activity=100267 dram_eff=0.8966
bk0: 2048a 3010769i bk1: 2048a 3010574i bk2: 2048a 3014055i bk3: 2048a 3010923i bk4: 2040a 3014185i bk5: 2040a 3013995i bk6: 2048a 3014229i bk7: 2048a 3013627i bk8: 2048a 3011699i bk9: 2048a 3010847i bk10: 2048a 3009785i bk11: 2048a 3008681i bk12: 2036a 3009855i bk13: 2036a 3010201i bk14: 2048a 3007173i bk15: 2048a 3006066i 
dram_util_bins: 0 0 0 0 0 0 0 0 0 0
dram_eff_bins: 0 0 0 0 0 0 0 0 0 0
mrqq: max=64 avg=0.819062
Memory Partition 7: 
Cache L2_bank_014:
MSHR contents

Cache L2_bank_015:
MSHR contents

In Dram Latency Queue (total = 0): 
DRAM[7]: 16 bks, busW=4 BL=8 CL=12, tRRD=2 tCCD=6, tRCD=12 tRAS=28 tRP=12 tRC=40
n_cmd=3046898 n_nop=2998480 n_act=1741 n_pre=1725 n_req=11238 n_rd=32728 n_write=12224 bw_util=0.02951
n_activity=100693 dram_eff=0.8929
bk0: 2048a 3012265i bk1: 2048a 3011553i bk2: 2048a 3013965i bk3: 2048a 3011706i bk4: 2040a 3016490i bk5: 2040a 3011985i bk6: 2048a 3013964i bk7: 2048a 3012377i bk8: 2048a 3013692i bk9: 2048a 3011452i bk10: 2048a 3010728i bk11: 2048a 3009545i bk12: 2036a 3009599i bk13: 2036a 3008040i bk14: 2048a 3008240i bk15: 2048a 3005611i 
dram_util_bins: 0 0 0 0 0 0 0 0 0 0
dram_eff_bins: 0 0 0 0 0 0 0 0 0 0
mrqq: max=64 avg=0.825983
Memory Partition 8: 
Cache L2_bank_016:
MSHR contents

Cache L2_bank_017:
MSHR contents

In Dram Latency Queue (total = 0): 
DRAM[8]: 16 bks, busW=4 BL=8 CL=12, tRRD=2 tCCD=6, tRCD=12 tRAS=28 tRP=12 tRC=40
n_cmd=3046898 n_nop=2998448 n_act=1753 n_pre=1737 n_req=11240 n_rd=32736 n_write=12224 bw_util=0.02951
n_activity=100738 dram_eff=0.8926
bk0: 2048a 3014202i bk1: 2048a 3012495i bk2: 2048a 3014590i bk3: 2048a 3010464i bk4: 2040a 3016303i bk5: 2040a 3012448i bk6: 2048a 3014787i bk7: 2048a 3008489i bk8: 2048a 3010206i bk9: 2048a 3010776i bk10: 2048a 3010250i bk11: 2048a 3011141i bk12: 2040a 3010361i bk13: 2040a 3009454i bk14: 2048a 3006257i bk15: 2048a 3006080i 
dram_util_bins: 0 0 0 0 0 0 0 0 0 0
dram_eff_bins: 0 0 0 0 0 0 0 0 0 0
mrqq: max=64 avg=0.833266
Memory Partition 9: 
Cache L2_bank_018:
MSHR contents

Cache L2_bank_019:
MSHR contents

In Dram Latency Queue (total = 0): 
DRAM[9]: 16 bks, busW=4 BL=8 CL=12, tRRD=2 tCCD=6, tRCD=12 tRAS=28 tRP=12 tRC=40
n_cmd=3046898 n_nop=2998614 n_act=1670 n_pre=1654 n_req=11240 n_rd=32736 n_write=12224 bw_util=0.02951
n_activity=100312 dram_eff=0.8964
bk0: 2048a 3010640i bk1: 2048a 3009256i bk2: 2048a 3014201i bk3: 2048a 3009862i bk4: 2040a 3014344i bk5: 2040a 3013070i bk6: 2048a 3013282i bk7: 2048a 3012465i bk8: 2048a 3010681i bk9: 2048a 3011056i bk10: 2048a 3009263i bk11: 2048a 3011600i bk12: 2040a 3010771i bk13: 2040a 3008890i bk14: 2048a 3008112i bk15: 2048a 3006081i 
dram_util_bins: 0 0 0 0 0 0 0 0 0 0
dram_eff_bins: 0 0 0 0 0 0 0 0 0 0
mrqq: max=64 avg=0.881944
Memory Partition 10: 
Cache L2_bank_020:
MSHR contents

Cache L2_bank_021:
MSHR contents

In Dram Latency Queue (total = 0): 
DRAM[10]: 16 bks, busW=4 BL=8 CL=12, tRRD=2 tCCD=6, tRCD=12 tRAS=28 tRP=12 tRC=40
n_cmd=3046898 n_nop=2998390 n_act=1782 n_pre=1766 n_req=11240 n_rd=32736 n_write=12224 bw_util=0.02951
n_activity=100547 dram_eff=0.8943
bk0: 2048a 3011246i bk1: 2048a 3011950i bk2: 2048a 3014152i bk3: 2048a 3013407i bk4: 2040a 3014525i bk5: 2040a 3013709i bk6: 2048a 3012497i bk7: 2048a 3011612i bk8: 2048a 3012849i bk9: 2048a 3011851i bk10: 2048a 3011807i bk11: 2048a 3011338i bk12: 2040a 3011903i bk13: 2040a 3007597i bk14: 2048a 3009992i bk15: 2048a 3005134i 
dram_util_bins: 0 0 0 0 0 0 0 0 0 0
dram_eff_bins: 0 0 0 0 0 0 0 0 0 0
mrqq: max=64 avg=0.825624

========= L2 cache stats =========
L2_cache_bank[0]: Access = 12344, Miss = 4092, Miss_rate = 0.331, Pending_hits = 3680, Reservation_fails = 0
L2_cache_bank[1]: Access = 12320, Miss = 4091, Miss_rate = 0.332, Pending_hits = 3843, Reservation_fails = 0
L2_cache_bank[2]: Access = 12358, Miss = 4092, Miss_rate = 0.331, Pending_hits = 3791, Reservation_fails = 0
L2_cache_bank[3]: Access = 12318, Miss = 4091, Miss_rate = 0.332, Pending_hits = 3875, Reservation_fails = 0
L2_cache_bank[4]: Access = 12314, Miss = 4090, Miss_rate = 0.332, Pending_hits = 3694, Reservation_fails = 0
L2_cache_bank[5]: Access = 12318, Miss = 4090, Miss_rate = 0.332, Pending_hits = 3819, Reservation_fails = 0
L2_cache_bank[6]: Access = 12321, Miss = 4090, Miss_rate = 0.332, Pending_hits = 3733, Reservation_fails = 0
L2_cache_bank[7]: Access = 12321, Miss = 4090, Miss_rate = 0.332, Pending_hits = 3821, Reservation_fails = 0
L2_cache_bank[8]: Access = 12345, Miss = 4091, Miss_rate = 0.331, Pending_hits = 3795, Reservation_fails = 0
L2_cache_bank[9]: Access = 12347, Miss = 4091, Miss_rate = 0.331, Pending_hits = 3818, Reservation_fails = 0
L2_cache_bank[10]: Access = 12351, Miss = 4091, Miss_rate = 0.331, Pending_hits = 3799, Reservation_fails = 0
L2_cache_bank[11]: Access = 12322, Miss = 4090, Miss_rate = 0.332, Pending_hits = 3830, Reservation_fails = 0
L2_cache_bank[12]: Access = 12321, Miss = 4091, Miss_rate = 0.332, Pending_hits = 3691, Reservation_fails = 0
L2_cache_bank[13]: Access = 12319, Miss = 4091, Miss_rate = 0.332, Pending_hits = 3739, Reservation_fails = 0
L2_cache_bank[14]: Access = 12323, Miss = 4091, Miss_rate = 0.332, Pending_hits = 3726, Reservation_fails = 0
L2_cache_bank[15]: Access = 12323, Miss = 4091, Miss_rate = 0.332, Pending_hits = 3819, Reservation_fails = 0
L2_cache_bank[16]: Access = 12324, Miss = 4092, Miss_rate = 0.332, Pending_hits = 3614, Reservation_fails = 0
L2_cache_bank[17]: Access = 12320, Miss = 4092, Miss_rate = 0.332, Pending_hits = 3759, Reservation_fails = 0
L2_cache_bank[18]: Access = 12322, Miss = 4092, Miss_rate = 0.332, Pending_hits = 3745, Reservation_fails = 0
L2_cache_bank[19]: Access = 12324, Miss = 4092, Miss_rate = 0.332, Pending_hits = 3849, Reservation_fails = 0
L2_cache_bank[20]: Access = 12324, Miss = 4092, Miss_rate = 0.332, Pending_hits = 3662, Reservation_fails = 0
L2_cache_bank[21]: Access = 12320, Miss = 4092, Miss_rate = 0.332, Pending_hits = 3758, Reservation_fails = 0
L2_total_cache_accesses = 271199
L2_total_cache_misses = 90005
L2_total_cache_miss_rate = 0.3319
L2_total_cache_pending_hits = 82860
L2_total_cache_reservation_fails = 0
L2_total_cache_breakdown:
	L2_cache_stats_breakdown[GLOBAL_ACC_R][HIT] = 30572
	L2_cache_stats_breakdown[GLOBAL_ACC_R][HIT_RESERVED] = 82751
	L2_cache_stats_breakdown[GLOBAL_ACC_R][MISS] = 89964
	L2_cache_stats_breakdown[GLOBAL_ACC_R][RESERVATION_FAIL] = 0
	L2_cache_stats_breakdown[LOCAL_ACC_R][HIT] = 0
	L2_cache_stats_breakdown[LOCAL_ACC_R][HIT_RESERVED] = 0
	L2_cache_stats_breakdown[LOCAL_ACC_R][MISS] = 0
	L2_cache_stats_breakdown[LOCAL_ACC_R][RESERVATION_FAIL] = 0
	L2_cache_stats_breakdown[CONST_ACC_R][HIT] = 0
	L2_cache_stats_breakdown[CONST_ACC_R][HIT_RESERVED] = 27
	L2_cache_stats_breakdown[CONST_ACC_R][MISS] = 1
	L2_cache_stats_breakdown[CONST_ACC_R][RESERVATION_FAIL] = 0
	L2_cache_stats_breakdown[TEXTURE_ACC_R][HIT] = 0
	L2_cache_stats_breakdown[TEXTURE_ACC_R][HIT_RESERVED] = 0
	L2_cache_stats_breakdown[TEXTURE_ACC_R][MISS] = 0
	L2_cache_stats_breakdown[TEXTURE_ACC_R][RESERVATION_FAIL] = 0
	L2_cache_stats_breakdown[GLOBAL_ACC_W][HIT] = 67762
	L2_cache_stats_breakdown[GLOBAL_ACC_W][HIT_RESERVED] = 1
	L2_cache_stats_breakdown[GLOBAL_ACC_W][MISS] = 37
	L2_cache_stats_breakdown[GLOBAL_ACC_W][RESERVATION_FAIL] = 0
	L2_cache_stats_breakdown[LOCAL_ACC_W][HIT] = 0
	L2_cache_stats_breakdown[LOCAL_ACC_W][HIT_RESERVED] = 0
	L2_cache_stats_breakdown[LOCAL_ACC_W][MISS] = 0
	L2_cache_stats_breakdown[LOCAL_ACC_W][RESERVATION_FAIL] = 0
	L2_cache_stats_breakdown[L1_WRBK_ACC][HIT] = 0
	L2_cache_stats_breakdown[L1_WRBK_ACC][HIT_RESERVED] = 0
	L2_cache_stats_breakdown[L1_WRBK_ACC][MISS] = 0
	L2_cache_stats_breakdown[L1_WRBK_ACC][RESERVATION_FAIL] = 0
	L2_cache_stats_breakdown[L2_WRBK_ACC][HIT] = 0
	L2_cache_stats_breakdown[L2_WRBK_ACC][HIT_RESERVED] = 0
	L2_cache_stats_breakdown[L2_WRBK_ACC][MISS] = 0
	L2_cache_stats_breakdown[L2_WRBK_ACC][RESERVATION_FAIL] = 0
	L2_cache_stats_breakdown[INST_ACC_R][HIT] = 0
	L2_cache_stats_breakdown[INST_ACC_R][HIT_RESERVED] = 81
	L2_cache_stats_breakdown[INST_ACC_R][MISS] = 3
	L2_cache_stats_breakdown[INST_ACC_R][RESERVATION_FAIL] = 0
	L2_cache_stats_breakdown[L1_WR_ALLOC_R][HIT] = 0
	L2_cache_stats_breakdown[L1_WR_ALLOC_R][HIT_RESERVED] = 0
	L2_cache_stats_breakdown[L1_WR_ALLOC_R][MISS] = 0
	L2_cache_stats_breakdown[L1_WR_ALLOC_R][RESERVATION_FAIL] = 0
	L2_cache_stats_breakdown[L2_WR_ALLOC_R][HIT] = 0
	L2_cache_stats_breakdown[L2_WR_ALLOC_R][HIT_RESERVED] = 0
	L2_cache_stats_breakdown[L2_WR_ALLOC_R][MISS] = 0
	L2_cache_stats_breakdown[L2_WR_ALLOC_R][RESERVATION_FAIL] = 0
	L2_cache_stats_breakdown[GLOBAL_ACC_R][TOTAL_ACCESS] = 203287
	L2_cache_stats_breakdown[CONST_ACC_R][TOTAL_ACCESS] = 28
	L2_cache_stats_breakdown[GLOBAL_ACC_W][TOTAL_ACCESS] = 67800
	L2_cache_stats_breakdown[INST_ACC_R][TOTAL_ACCESS] = 84
L2_cache_data_port_util = 0.011
L2_cache_fill_port_util = 0.010

icnt_total_pkts_mem_to_simt=811179
icnt_total_pkts_simt_to_mem=451199
LD_mem_lat_dist  0 0 0 0 0 0 0 0 0 0 0 0 0 0 0 0 0 0 0 0 0 0 0 0 0 0 0
ST_mem_lat_dist  0 0 0 0 0 0 0 0 0 0 0 0 0 0 0 0 0 0 0 0 0 0 0 0 0 0 0
----------------------------Interconnect-DETAILS--------------------------------
Class 0:
Packet latency average = 48.3149
	minimum = 6
	maximum = 1532
Network latency average = 30.168
	minimum = 6
	maximum = 1369
Slowest packet = 301874
Flit latency average = 21.8363
	minimum = 6
	maximum = 1369
Slowest flit = 1046532
Fragmentation average = 0.0763185
	minimum = 0
	maximum = 516
Injected packet rate average = 0.0033055
	minimum = 0.00280853 (at node 26)
	maximum = 0.00376563 (at node 30)
Accepted packet rate average = 0.0033055
	minimum = 0.00280853 (at node 26)
	maximum = 0.00376563 (at node 30)
Injected flit rate average = 0.00769324
	minimum = 0.00467581 (at node 26)
	maximum = 0.011271 (at node 38)
Accepted flit rate average= 0.00769324
	minimum = 0.00624477 (at node 32)
	maximum = 0.00924558 (at node 2)
Injected packet length average = 2.3274
Accepted packet length average = 2.3274
Total in-flight flits = 0 (0 measured)
====== Overall Traffic Statistics ======
====== Traffic class 0 ======
Packet latency average = 48.3149 (1 samples)
	minimum = 6 (1 samples)
	maximum = 1532 (1 samples)
Network latency average = 30.168 (1 samples)
	minimum = 6 (1 samples)
	maximum = 1369 (1 samples)
Flit latency average = 21.8363 (1 samples)
	minimum = 6 (1 samples)
	maximum = 1369 (1 samples)
Fragmentation average = 0.0763185 (1 samples)
	minimum = 0 (1 samples)
	maximum = 516 (1 samples)
Injected packet rate average = 0.0033055 (1 samples)
	minimum = 0.00280853 (1 samples)
	maximum = 0.00376563 (1 samples)
Accepted packet rate average = 0.0033055 (1 samples)
	minimum = 0.00280853 (1 samples)
	maximum = 0.00376563 (1 samples)
Injected flit rate average = 0.00769324 (1 samples)
	minimum = 0.00467581 (1 samples)
	maximum = 0.011271 (1 samples)
Accepted flit rate average = 0.00769324 (1 samples)
	minimum = 0.00624477 (1 samples)
	maximum = 0.00924558 (1 samples)
Injected packet size average = 2.3274 (1 samples)
Accepted packet size average = 2.3274 (1 samples)
Hops average = 1 (1 samples)
----------------------------END-of-Interconnect-DETAILS-------------------------


gpgpu_simulation_time = 0 days, 0 hrs, 26 min, 55 sec (1615 sec)
gpgpu_simulation_rate = 30524 (inst/sec)
gpgpu_simulation_rate = 1153 (cycle/sec)
GPGPU-Sim: synchronize waiting for inactive GPU simulation
GPGPU-Sim API: Stream Manager State
GPGPU-Sim: detected inactive GPU simulation thread

GPGPU-Sim PTX: cudaLaunch for 0x0x40167f (mode=performance simulation) on stream 0
GPGPU-Sim PTX: pushing kernel '_Z17fdtd_step2_kernelPfS_S_i' to stream 0, gridDim= (38,150,1) blockDim = (32,8,1) 
GPGPU-Sim uArch: Shader 8 bind to kernel 2 '_Z17fdtd_step2_kernelPfS_S_i'
GPGPU-Sim uArch: CTA/core = 8, limited by: threads
GPGPU-Sim uArch: Shader 9 bind to kernel 2 '_Z17fdtd_step2_kernelPfS_S_i'
GPGPU-Sim uArch: Shader 10 bind to kernel 2 '_Z17fdtd_step2_kernelPfS_S_i'
GPGPU-Sim uArch: Shader 11 bind to kernel 2 '_Z17fdtd_step2_kernelPfS_S_i'
GPGPU-Sim uArch: Shader 12 bind to kernel 2 '_Z17fdtd_step2_kernelPfS_S_i'
GPGPU-Sim uArch: Shader 13 bind to kernel 2 '_Z17fdtd_step2_kernelPfS_S_i'
GPGPU-Sim uArch: Shader 14 bind to kernel 2 '_Z17fdtd_step2_kernelPfS_S_i'
GPGPU-Sim uArch: Shader 15 bind to kernel 2 '_Z17fdtd_step2_kernelPfS_S_i'
GPGPU-Sim uArch: Shader 16 bind to kernel 2 '_Z17fdtd_step2_kernelPfS_S_i'
GPGPU-Sim uArch: Shader 17 bind to kernel 2 '_Z17fdtd_step2_kernelPfS_S_i'
GPGPU-Sim uArch: Shader 18 bind to kernel 2 '_Z17fdtd_step2_kernelPfS_S_i'
GPGPU-Sim uArch: Shader 19 bind to kernel 2 '_Z17fdtd_step2_kernelPfS_S_i'
GPGPU-Sim uArch: Shader 20 bind to kernel 2 '_Z17fdtd_step2_kernelPfS_S_i'
GPGPU-Sim uArch: Shader 21 bind to kernel 2 '_Z17fdtd_step2_kernelPfS_S_i'
GPGPU-Sim uArch: Shader 22 bind to kernel 2 '_Z17fdtd_step2_kernelPfS_S_i'
GPGPU-Sim uArch: Shader 23 bind to kernel 2 '_Z17fdtd_step2_kernelPfS_S_i'
GPGPU-Sim uArch: Shader 24 bind to kernel 2 '_Z17fdtd_step2_kernelPfS_S_i'
GPGPU-Sim uArch: Shader 25 bind to kernel 2 '_Z17fdtd_step2_kernelPfS_S_i'
GPGPU-Sim uArch: Shader 26 bind to kernel 2 '_Z17fdtd_step2_kernelPfS_S_i'
GPGPU-Sim uArch: Shader 27 bind to kernel 2 '_Z17fdtd_step2_kernelPfS_S_i'
GPGPU-Sim uArch: Shader 0 bind to kernel 2 '_Z17fdtd_step2_kernelPfS_S_i'
GPGPU-Sim uArch: Shader 1 bind to kernel 2 '_Z17fdtd_step2_kernelPfS_S_i'
GPGPU-Sim uArch: Shader 2 bind to kernel 2 '_Z17fdtd_step2_kernelPfS_S_i'
GPGPU-Sim uArch: Shader 3 bind to kernel 2 '_Z17fdtd_step2_kernelPfS_S_i'
GPGPU-Sim uArch: Shader 4 bind to kernel 2 '_Z17fdtd_step2_kernelPfS_S_i'
GPGPU-Sim uArch: Shader 5 bind to kernel 2 '_Z17fdtd_step2_kernelPfS_S_i'
GPGPU-Sim uArch: Shader 6 bind to kernel 2 '_Z17fdtd_step2_kernelPfS_S_i'
[...]
F:   285508----T:   288113 	 St: c0620000 Sz: 4096 	 Sm: 0 	 T: memcpy_h2d(1.758947)
F:   288113----T:   290718 	 St: c0621000 Sz: 4096 	 Sm: 0 	 T: memcpy_h2d(1.758947)
F:   290718----T:   298498 	 St: c0622000 Sz: 57344 	 Sm: 0 	 T: memcpy_h2d(5.253207)
F:   298498----T:   301103 	 St: c0630000 Sz: 4096 	 Sm: 0 	 T: memcpy_h2d(1.758947)
F:   301103----T:   316798 	 St: c0631000 Sz: 126976 	 Sm: 0 	 T: memcpy_h2d(10.597569)
F:   317302----T:   319907 	 St: c0c50000 Sz: 4096 	 Sm: 0 	 T: memcpy_h2d(1.758947)
F:   319907----T:   350630 	 St: c0c51000 Sz: 258048 	 Sm: 0 	 T: memcpy_h2d(20.744766)
F:   350630----T:   353235 	 St: c0650000 Sz: 4096 	 Sm: 0 	 T: memcpy_h2d(1.758947)
F:   353235----T:   383958 	 St: c0651000 Sz: 258048 	 Sm: 0 	 T: memcpy_h2d(20.744766)
F:   385031----T:   387636 	 St: c0c90000 Sz: 4096 	 Sm: 0 	 T: memcpy_h2d(1.758947)
F:   387636----T:   448472 	 St: c0c91000 Sz: 520192 	 Sm: 0 	 T: memcpy_h2d(41.077652)
F:   448472----T:   451077 	 St: c0690000 Sz: 4096 	 Sm: 0 	 T: memcpy_h2d(1.758947)
F:   451077----T:   511913 	 St: c0691000 Sz: 520192 	 Sm: 0 	 T: memcpy_h2d(41.077652)
F:   515966----T:   516166 	 St: c0d10a40 Sz: 64 	 Sm: 0 	 T: dma(0.135044)
F:   516166----T:   516366 	 St: c0d10a80 Sz: 64 	 Sm: 0 	 T: dma(0.135044)
F:   516366----T:   516566 	 St: c0d11d00 Sz: 128 	 Sm: 0 	 T: dma(0.135044)
F:   516566----T:   516766 	 St: c0d12fc0 Sz: 64 	 Sm: 0 	 T: dma(0.135044)
F:   516766----T:   516966 	 St: c0d13000 Sz: 64 	 Sm: 0 	 T: dma(0.135044)
F:   516966----T:   517166 	 St: c0d14280 Sz: 128 	 Sm: 0 	 T: dma(0.135044)
F:   517166----T:   517366 	 St: c0d10a40 Sz: 64 	 Sm: 0 	 T: dma(0.135044)
F:   517366----T:   517566 	 St: c0d10a80 Sz: 64 	 Sm: 0 	 T: dma(0.135044)
F:   517566----T:   517766 	 St: c0d11d00 Sz: 128 	 Sm: 0 	 T: dma(0.135044)
F:   517766----T:   517966 	 St: c0d12fc0 Sz: 64 	 Sm: 0 	 T: dma(0.135044)
F:   517966----T:   518166 	 St: c0d13000 Sz: 64 	 Sm: 0 	 T: dma(0.135044)
F:   518166----T:   518366 	 St: c0d14280 Sz: 128 	 Sm: 0 	 T: dma(0.135044)
F:   518366----T:   518566 	 St: c0d15540 Sz: 64 	 Sm: 0 	 T: dma(0.135044)
F:   518566----T:   518766 	 St: c0711d00 Sz: 128 	 Sm: 0 	 T: dma(0.135044)
F:   518766----T:   518966 	 St: c0714280 Sz: 128 	 Sm: 0 	 T: dma(0.135044)
F:   518966----T:   519166 	 St: c0710a40 Sz: 64 	 Sm: 0 	 T: dma(0.135044)
F:   519166----T:   519366 	 St: c0710a80 Sz: 64 	 Sm: 0 	 T: dma(0.135044)
F:   519366----T:   519566 	 St: c0712fc0 Sz: 64 	 Sm: 0 	 T: dma(0.135044)
F:   519566----T:   519766 	 St: c0713000 Sz: 64 	 Sm: 0 	 T: dma(0.135044)
F:   519766----T:   523985 	 St: c0d10000 Sz: 24576 	 Sm: 0 	 T: memcpy_h2d(2.848751)
F:   523985----T:   642720 	 St: c0d16000 Sz: 1024000 	 Sm: 0 	 T: memcpy_h2d(80.172180)
F:   642720----T:   645325 	 St: c0710000 Sz: 4096 	 Sm: 0 	 T: memcpy_h2d(1.758947)
F:   645325----T:   647930 	 St: c0711000 Sz: 4096 	 Sm: 0 	 T: memcpy_h2d(1.758947)
F:   647930----T:   768548 	 St: c0712000 Sz: 1040384 	 Sm: 0 	 T: memcpy_h2d(81.443619)
F:   778364----T:   780969 	 St: c0e10000 Sz: 4096 	 Sm: 0 	 T: memcpy_h2d(1.758947)
F:   780969----T:   789209 	 St: c0e11000 Sz: 61440 	 Sm: 0 	 T: memcpy_h2d(5.563808)
F:   789209----T:   791814 	 St: c0810000 Sz: 4096 	 Sm: 0 	 T: memcpy_h2d(1.758947)
F:   791814----T:   800054 	 St: c0811000 Sz: 61440 	 Sm: 0 	 T: memcpy_h2d(5.563808)
F:   800658----T:   804088 	 St: c0e20000 Sz: 16384 	 Sm: 0 	 T: memcpy_h2d(2.316003)
F:   804088----T:   810953 	 St: c0e24000 Sz: 49152 	 Sm: 0 	 T: memcpy_h2d(4.635382)
F:   810953----T:   813558 	 St: c0e30000 Sz: 4096 	 Sm: 0 	 T: memcpy_h2d(1.758947)
F:   813558----T:   829253 	 St: c0e31000 Sz: 126976 	 Sm: 0 	 T: memcpy_h2d(10.597569)
F:   829253----T:   831858 	 St: c0e50000 Sz: 4096 	 Sm: 0 	 T: memcpy_h2d(1.758947)
F:   831858----T:   862581 	 St: c0e51000 Sz: 258048 	 Sm: 0 	 T: memcpy_h2d(20.744766)
F:   862581----T:   862781 	 St: c0850c80 Sz: 128 	 Sm: 0 	 T: dma(0.135044)
F:   862781----T:   862981 	 St: c0850900 Sz: 128 	 Sm: 0 	 T: dma(0.135044)
F:   862981----T:   863181 	 St: c0850a00 Sz: 128 	 Sm: 0 	 T: dma(0.135044)
F:   863181----T:   863381 	 St: c0850b00 Sz: 128 	 Sm: 0 	 T: dma(0.135044)
F:   863381----T:   863581 	 St: c0850e00 Sz: 128 	 Sm: 0 	 T: dma(0.135044)
F:   863581----T:   863781 	 St: c0850f00 Sz: 128 	 Sm: 0 	 T: dma(0.135044)
F:   863781----T:   863981 	 St: c0850d00 Sz: 128 	 Sm: 0 	 T: dma(0.135044)
F:   863981----T:   864181 	 St: c0850e80 Sz: 128 	 Sm: 0 	 T: dma(0.135044)
F:   864181----T:   864381 	 St: c0850c00 Sz: 128 	 Sm: 0 	 T: dma(0.135044)
F:   864381----T:   864581 	 St: c0850f80 Sz: 128 	 Sm: 0 	 T: dma(0.135044)
F:   864581----T:   864781 	 St: c0850980 Sz: 128 	 Sm: 0 	 T: dma(0.135044)
F:   864781----T:   864981 	 St: c0850a80 Sz: 128 	 Sm: 0 	 T: dma(0.135044)
F:   864981----T:   865181 	 St: c0850b80 Sz: 128 	 Sm: 0 	 T: dma(0.135044)
F:   865181----T:   865381 	 St: c0850d80 Sz: 128 	 Sm: 0 	 T: dma(0.135044)
F:   865381----T:   867986 	 St: c0820000 Sz: 4096 	 Sm: 0 	 T: memcpy_h2d(1.758947)
F:   867986----T:   876226 	 St: c0821000 Sz: 61440 	 Sm: 0 	 T: memcpy_h2d(5.563808)
F:   876226----T:   878831 	 St: c0830000 Sz: 4096 	 Sm: 0 	 T: memcpy_h2d(1.758947)
F:   878831----T:   894526 	 St: c0831000 Sz: 126976 	 Sm: 0 	 T: memcpy_h2d(10.597569)
F:   894526----T:   897612 	 St: c0850000 Sz: 12288 	 Sm: 0 	 T: memcpy_h2d(2.083727)
F:   897612----T:   927395 	 St: c0853000 Sz: 249856 	 Sm: 0 	 T: memcpy_h2d(20.110062)
F:   930360----T:   933160 	 St: c0e90000 Sz: 8192 	 Sm: 0 	 T: memcpy_h2d(1.890614)
F:   933160----T:   993525 	 St: c0e92000 Sz: 516096 	 Sm: 0 	 T: memcpy_h2d(40.759621)
F:   993525----T:   996130 	 St: c0890000 Sz: 4096 	 Sm: 0 	 T: memcpy_h2d(1.758947)
F:   996130----T:  1056966 	 St: c0891000 Sz: 520192 	 Sm: 0 	 T: memcpy_h2d(41.077652)
F:  1061286----T:  1061486 	 St: c0f100c0 Sz: 64 	 Sm: 0 	 T: dma(0.135044)
F:  1061486----T:  1061686 	 St: c0f10100 Sz: 64 	 Sm: 0 	 T: dma(0.135044)
F:  1061686----T:  1061886 	 St: c0f10140 Sz: 64 	 Sm: 0 	 T: dma(0.135044)
F:  1061886----T:  1062086 	 St: c0f10180 Sz: 64 	 Sm: 0 	 T: dma(0.135044)
F:  1062086----T:  1062286 	 St: c0f10540 Sz: 64 	 Sm: 0 	 T: dma(0.135044)
F:  1062286----T:  1062486 	 St: c0f10580 Sz: 64 	 Sm: 0 	 T: dma(0.135044)
F:  1062486----T:  1062686 	 St: c0f10440 Sz: 64 	 Sm: 0 	 T: dma(0.135044)
F:  1062686----T:  1062886 	 St: c0f10480 Sz: 64 	 Sm: 0 	 T: dma(0.135044)
F:  1062886----T:  1063086 	 St: c09100c0 Sz: 64 	 Sm: 0 	 T: dma(0.135044)
F:  1063086----T:  1063286 	 St: c0910100 Sz: 64 	 Sm: 0 	 T: dma(0.135044)
F:  1063286----T:  1063486 	 St: c0910140 Sz: 64 	 Sm: 0 	 T: dma(0.135044)
F:  1063486----T:  1063686 	 St: c0910180 Sz: 64 	 Sm: 0 	 T: dma(0.135044)
F:  1063686----T:  1063886 	 St: c0910540 Sz: 64 	 Sm: 0 	 T: dma(0.135044)
F:  1063886----T:  1064086 	 St: c0910580 Sz: 64 	 Sm: 0 	 T: dma(0.135044)
F:  1064086----T:  1064286 	 St: c0910440 Sz: 64 	 Sm: 0 	 T: dma(0.135044)
F:  1064286----T:  1064486 	 St: c0910480 Sz: 64 	 Sm: 0 	 T: dma(0.135044)
F:  1064486----T:  1067091 	 St: c0f10000 Sz: 4096 	 Sm: 0 	 T: memcpy_h2d(1.758947)
F:  1067091----T:  1188180 	 St: c0f11000 Sz: 1044480 	 Sm: 0 	 T: memcpy_h2d(81.761650)
F:  1188180----T:  1190785 	 St: c0910000 Sz: 4096 	 Sm: 0 	 T: memcpy_h2d(1.758947)
F:  1190785----T:  1311874 	 St: c0911000 Sz: 1044480 	 Sm: 0 	 T: memcpy_h2d(81.761650)
F:  1322251----T:  1324856 	 St: c1010000 Sz: 4096 	 Sm: 0 	 T: memcpy_h2d(1.758947)
F:  1324856----T:  1333096 	 St: c1011000 Sz: 61440 	 Sm: 0 	 T: memcpy_h2d(5.563808)
F:  1333096----T:  1335701 	 St: c0a10000 Sz: 4096 	 Sm: 0 	 T: memcpy_h2d(1.758947)
F:  1335701----T:  1343941 	 St: c0a11000 Sz: 61440 	 Sm: 0 	 T: memcpy_h2d(5.563808)
F:  1344616----T:  1347221 	 St: c1020000 Sz: 4096 	 Sm: 0 	 T: memcpy_h2d(1.758947)
F:  1347221----T:  1355461 	 St: c1021000 Sz: 61440 	 Sm: 0 	 T: memcpy_h2d(5.563808)
F:  1355461----T:  1358066 	 St: c1030000 Sz: 4096 	 Sm: 0 	 T: memcpy_h2d(1.758947)
F:  1358066----T:  1373761 	 St: c1031000 Sz: 126976 	 Sm: 0 	 T: memcpy_h2d(10.597569)
F:  1373761----T:  1376366 	 St: c0a20000 Sz: 4096 	 Sm: 0 	 T: memcpy_h2d(1.758947)
F:  1376366----T:  1384606 	 St: c0a21000 Sz: 61440 	 Sm: 0 	 T: memcpy_h2d(5.563808)
F:  1384606----T:  1387211 	 St: c0a30000 Sz: 4096 	 Sm: 0 	 T: memcpy_h2d(1.758947)
F:  1387211----T:  1402906 	 St: c0a31000 Sz: 126976 	 Sm: 0 	 T: memcpy_h2d(10.597569)
F:  1403293----T:  1405898 	 St: c1050000 Sz: 4096 	 Sm: 0 	 T: memcpy_h2d(1.758947)
F:  1405898----T:  1408503 	 St: c1051000 Sz: 4096 	 Sm: 0 	 T: memcpy_h2d(1.758947)
F:  1408503----T:  1411108 	 St: c1052000 Sz: 4096 	 Sm: 0 	 T: memcpy_h2d(1.758947)
F:  1411108----T:  1440891 	 St: c1053000 Sz: 249856 	 Sm: 0 	 T: memcpy_h2d(20.110062)
F:  1440891----T:  1443496 	 St: c0a50000 Sz: 4096 	 Sm: 0 	 T: memcpy_h2d(1.758947)
F:  1443496----T:  1474219 	 St: c0a51000 Sz: 258048 	 Sm: 0 	 T: memcpy_h2d(20.744766)
F:  1475340----T:  1477945 	 St: c1090000 Sz: 4096 	 Sm: 0 	 T: memcpy_h2d(1.758947)
F:  1477945----T:  1538781 	 St: c1091000 Sz: 520192 	 Sm: 0 	 T: memcpy_h2d(41.077652)
F:  1538781----T:  1541386 	 St: c0a90000 Sz: 4096 	 Sm: 0 	 T: memcpy_h2d(1.758947)
F:  1541386----T:  1602222 	 St: c0a91000 Sz: 520192 	 Sm: 0 	 T: memcpy_h2d(41.077652)
F:  1606803----T:  1607003 	 St: c1110dc0 Sz: 64 	 Sm: 0 	 T: dma(0.135044)
F:  1607003----T:  1607203 	 St: c1110e00 Sz: 64 	 Sm: 0 	 T: dma(0.135044)
F:  1607203----T:  1607403 	 St: c1112080 Sz: 128 	 Sm: 0 	 T: dma(0.135044)
F:  1607403----T:  1607603 	 St: c1110dc0 Sz: 64 	 Sm: 0 	 T: dma(0.135044)
F:  1607603----T:  1607803 	 St: c1110e00 Sz: 64 	 Sm: 0 	 T: dma(0.135044)
F:  1607803----T:  1608003 	 St: c1112080 Sz: 128 	 Sm: 0 	 T: dma(0.135044)
F:  1608003----T:  1608203 	 St: c1113340 Sz: 64 	 Sm: 0 	 T: dma(0.135044)
F:  1608203----T:  1608403 	 St: c1113380 Sz: 64 	 Sm: 0 	 T: dma(0.135044)
F:  1608403----T:  1608603 	 St: c0b12080 Sz: 128 	 Sm: 0 	 T: dma(0.135044)
F:  1608603----T:  1608803 	 St: c0b10dc0 Sz: 64 	 Sm: 0 	 T: dma(0.135044)
F:  1608803----T:  1609003 	 St: c0b10e00 Sz: 64 	 Sm: 0 	 T: dma(0.135044)
F:  1609003----T:  1609203 	 St: c0b13340 Sz: 64 	 Sm: 0 	 T: dma(0.135044)
F:  1609203----T:  1609403 	 St: c0b13380 Sz: 64 	 Sm: 0 	 T: dma(0.135044)
F:  1609403----T:  1612203 	 St: c1110000 Sz: 8192 	 Sm: 0 	 T: memcpy_h2d(1.890614)
F:  1612203----T:  1732821 	 St: c1112000 Sz: 1040384 	 Sm: 0 	 T: memcpy_h2d(81.443619)
F:  1732821----T:  1735426 	 St: c0b10000 Sz: 4096 	 Sm: 0 	 T: memcpy_h2d(1.758947)
F:  1735426----T:  1856515 	 St: c0b11000 Sz: 1044480 	 Sm: 0 	 T: memcpy_h2d(81.761650)
F:  2085194----T:  2930292 	 	 	 Kl: 2 	 Sm: 0 	 T: kernel_launch(570.626587)
F:  2086867----T:  2089472 	 St: c0010000 Sz: 4096 	 Sm: 0 	 T: memcpy_h2d(1.758947)
F:  2089472----T:  2089672 	 St: c0030fe0 Sz: 32 	 Sm: 0 	 T: dma(0.135044)
F:  2089672----T:  2089872 	 St: c0031000 Sz: 128 	 Sm: 0 	 T: dma(0.135044)
F:  2089872----T:  2098112 	 St: c0011000 Sz: 61440 	 Sm: 0 	 T: memcpy_h2d(5.563808)
F:  2098112----T:  2106352 	 St: c0020000 Sz: 61440 	 Sm: 0 	 T: memcpy_h2d(5.563808)
F:  2106352----T:  2108957 	 St: c002f000 Sz: 4096 	 Sm: 0 	 T: memcpy_h2d(1.758947)
F:  2108957----T:  2112387 	 St: c0030000 Sz: 16384 	 Sm: 0 	 T: memcpy_h2d(2.316003)
F:  2112387----T:  2126677 	 St: c0034000 Sz: 114688 	 Sm: 0 	 T: memcpy_h2d(9.648886)
F:  2127563----T:  2130649 	 St: c0050000 Sz: 12288 	 Sm: 0 	 T: memcpy_h2d(2.083727)
F:  2130649----T:  2160432 	 St: c0053000 Sz: 249856 	 Sm: 0 	 T: memcpy_h2d(20.110062)
F:  2161988----T:  2164788 	 St: c0090000 Sz: 8192 	 Sm: 0 	 T: memcpy_h2d(1.890614)
F:  2164788----T:  2225153 	 St: c0092000 Sz: 516096 	 Sm: 0 	 T: memcpy_h2d(40.759621)
F:  2229984----T:  2233070 	 St: c0110000 Sz: 12288 	 Sm: 0 	 T: memcpy_h2d(2.083727)
F:  2233070----T:  2353218 	 St: c0113000 Sz: 1036288 	 Sm: 0 	 T: memcpy_h2d(81.126266)
F:  2364254----T:  2364454 	 St: c0211b40 Sz: 64 	 Sm: 0 	 T: dma(0.135044)
F:  2364454----T:  2364654 	 St: c0211b80 Sz: 128 	 Sm: 0 	 T: dma(0.135044)
F:  2364654----T:  2364854 	 St: c0210880 Sz: 128 	 Sm: 0 	 T: dma(0.135044)
F:  2364854----T:  2365054 	 St: c0210900 Sz: 32 	 Sm: 0 	 T: dma(0.135044)
F:  2365054----T:  2365254 	 St: c0212e00 Sz: 128 	 Sm: 0 	 T: dma(0.135044)
F:  2365254----T:  2365454 	 St: c0212e80 Sz: 32 	 Sm: 0 	 T: dma(0.135044)
F:  2365454----T:  2365654 	 St: c0213080 Sz: 128 	 Sm: 0 	 T: dma(0.135044)
F:  2365654----T:  2365854 	 St: c0213100 Sz: 32 	 Sm: 0 	 T: dma(0.135044)
F:  2365854----T:  2366054 	 St: c0212240 Sz: 64 	 Sm: 0 	 T: dma(0.135044)
F:  2366054----T:  2366254 	 St: c0212280 Sz: 128 	 Sm: 0 	 T: dma(0.135044)
F:  2366254----T:  2369054 	 St: c0210000 Sz: 8192 	 Sm: 0 	 T: memcpy_h2d(1.890614)
F:  2369054----T:  2376834 	 St: c0212000 Sz: 57344 	 Sm: 0 	 T: memcpy_h2d(5.253207)
F:  2377562----T:  2380167 	 St: c0220000 Sz: 4096 	 Sm: 0 	 T: memcpy_h2d(1.758947)
F:  2380167----T:  2388407 	 St: c0221000 Sz: 61440 	 Sm: 0 	 T: memcpy_h2d(5.563808)
F:  2388407----T:  2391012 	 St: c0230000 Sz: 4096 	 Sm: 0 	 T: memcpy_h2d(1.758947)
F:  2391012----T:  2406707 	 St: c0231000 Sz: 126976 	 Sm: 0 	 T: memcpy_h2d(10.597569)
F:  2406707----T:  2410137 	 St: c0250000 Sz: 16384 	 Sm: 0 	 T: memcpy_h2d(2.316003)
F:  2410137----T:  2439449 	 St: c0254000 Sz: 245760 	 Sm: 0 	 T: memcpy_h2d(19.792032)
F:  2442868----T:  2445473 	 St: c0290000 Sz: 4096 	 Sm: 0 	 T: memcpy_h2d(1.758947)
F:  2445473----T:  2506309 	 St: c0291000 Sz: 520192 	 Sm: 0 	 T: memcpy_h2d(41.077652)
F:  2511290----T:  2511490 	 St: c03106e0 Sz: 32 	 Sm: 0 	 T: dma(0.135044)
F:  2511490----T:  2511690 	 St: c0310700 Sz: 128 	 Sm: 0 	 T: dma(0.135044)
F:  2511690----T:  2511890 	 St: c03105e0 Sz: 32 	 Sm: 0 	 T: dma(0.135044)
F:  2511890----T:  2512090 	 St: c0310600 Sz: 128 	 Sm: 0 	 T: dma(0.135044)
F:  2512090----T:  2512290 	 St: c03104e0 Sz: 32 	 Sm: 0 	 T: dma(0.135044)
F:  2512290----T:  2512490 	 St: c0310500 Sz: 128 	 Sm: 0 	 T: dma(0.135044)
F:  2512490----T:  2515290 	 St: c0310000 Sz: 8192 	 Sm: 0 	 T: memcpy_h2d(1.890614)
F:  2515290----T:  2635908 	 St: c0312000 Sz: 1040384 	 Sm: 0 	 T: memcpy_h2d(81.443619)
F:  2647031----T:  2647231 	 St: c0411100 Sz: 128 	 Sm: 0 	 T: dma(0.135044)
F:  2647231----T:  2647431 	 St: c0411180 Sz: 64 	 Sm: 0 	 T: dma(0.135044)
F:  2647431----T:  2647631 	 St: c0415c00 Sz: 128 	 Sm: 0 	 T: dma(0.135044)
F:  2647631----T:  2647831 	 St: c0415c80 Sz: 64 	 Sm: 0 	 T: dma(0.135044)
F:  2647831----T:  2648031 	 St: c0413680 Sz: 128 	 Sm: 0 	 T: dma(0.135044)
F:  2648031----T:  2648231 	 St: c0413700 Sz: 64 	 Sm: 0 	 T: dma(0.135044)
F:  2648231----T:  2648431 	 St: c04170e0 Sz: 32 	 Sm: 0 	 T: dma(0.135044)
F:  2648431----T:  2648631 	 St: c0417100 Sz: 128 	 Sm: 0 	 T: dma(0.135044)
F:  2648631----T:  2648831 	 St: c0411700 Sz: 128 	 Sm: 0 	 T: dma(0.135044)
F:  2648831----T:  2649031 	 St: c0411780 Sz: 64 	 Sm: 0 	 T: dma(0.135044)
F:  2649031----T:  2649231 	 St: c0420580 Sz: 128 	 Sm: 0 	 T: dma(0.135044)
F:  2649231----T:  2649431 	 St: c0420600 Sz: 32 	 Sm: 0 	 T: dma(0.135044)
F:  2649431----T:  2649631 	 St: c0420680 Sz: 128 	 Sm: 0 	 T: dma(0.135044)
F:  2649631----T:  2649831 	 St: c0420700 Sz: 32 	 Sm: 0 	 T: dma(0.135044)
F:  2649831----T:  2650031 	 St: c0420780 Sz: 128 	 Sm: 0 	 T: dma(0.135044)
F:  2650031----T:  2650231 	 St: c0420800 Sz: 32 	 Sm: 0 	 T: dma(0.135044)
F:  2650231----T:  2650431 	 St: c0420700 Sz: 128 	 Sm: 0 	 T: dma(0.135044)
F:  2650431----T:  2650631 	 St: c0420780 Sz: 32 	 Sm: 0 	 T: dma(0.135044)
F:  2650631----T:  2650831 	 St: c0420600 Sz: 128 	 Sm: 0 	 T: dma(0.135044)
F:  2650831----T:  2651031 	 St: c0420680 Sz: 32 	 Sm: 0 	 T: dma(0.135044)
F:  2651031----T:  2651231 	 St: c0420500 Sz: 128 	 Sm: 0 	 T: dma(0.135044)
F:  2651231----T:  2651431 	 St: c0420580 Sz: 32 	 Sm: 0 	 T: dma(0.135044)
F:  2651431----T:  2651631 	 St: c0420800 Sz: 128 	 Sm: 0 	 T: dma(0.135044)
F:  2651631----T:  2651831 	 St: c0420880 Sz: 32 	 Sm: 0 	 T: dma(0.135044)
F:  2651831----T:  2654631 	 St: c0410000 Sz: 8192 	 Sm: 0 	 T: memcpy_h2d(1.890614)
F:  2654631----T:  2662411 	 St: c0412000 Sz: 57344 	 Sm: 0 	 T: memcpy_h2d(5.253207)
F:  2663238----T:  2666038 	 St: c0420000 Sz: 8192 	 Sm: 0 	 T: memcpy_h2d(1.890614)
F:  2666038----T:  2666238 	 St: c0430380 Sz: 128 	 Sm: 0 	 T: dma(0.135044)
F:  2666238----T:  2666438 	 St: c0430400 Sz: 32 	 Sm: 0 	 T: dma(0.135044)
F:  2666438----T:  2666638 	 St: c0432900 Sz: 128 	 Sm: 0 	 T: dma(0.135044)
F:  2666638----T:  2666838 	 St: c0432980 Sz: 32 	 Sm: 0 	 T: dma(0.135044)
F:  2666838----T:  2667038 	 St: c0431e80 Sz: 128 	 Sm: 0 	 T: dma(0.135044)
F:  2667038----T:  2667238 	 St: c0431f00 Sz: 32 	 Sm: 0 	 T: dma(0.135044)
F:  2667238----T:  2667438 	 St: c0432280 Sz: 128 	 Sm: 0 	 T: dma(0.135044)
F:  2667438----T:  2667638 	 St: c0432300 Sz: 32 	 Sm: 0 	 T: dma(0.135044)
F:  2667638----T:  2667838 	 St: c0431f00 Sz: 128 	 Sm: 0 	 T: dma(0.135044)
F:  2667838----T:  2668038 	 St: c0431f80 Sz: 32 	 Sm: 0 	 T: dma(0.135044)
F:  2668038----T:  2668238 	 St: c0452c00 Sz: 128 	 Sm: 0 	 T: dma(0.135044)
F:  2668238----T:  2668438 	 St: c0452c80 Sz: 32 	 Sm: 0 	 T: dma(0.135044)
F:  2668438----T:  2668638 	 St: c0455180 Sz: 128 	 Sm: 0 	 T: dma(0.135044)
F:  2668638----T:  2668838 	 St: c0455200 Sz: 32 	 Sm: 0 	 T: dma(0.135044)
F:  2668838----T:  2669038 	 St: c0450780 Sz: 128 	 Sm: 0 	 T: dma(0.135044)
F:  2669038----T:  2676818 	 St: c0422000 Sz: 57344 	 Sm: 0 	 T: memcpy_h2d(5.253207)
F:  2676818----T:  2679618 	 St: c0430000 Sz: 8192 	 Sm: 0 	 T: memcpy_h2d(1.890614)
F:  2679618----T:  2694844 	 St: c0432000 Sz: 122880 	 Sm: 0 	 T: memcpy_h2d(10.280891)
F:  2694844----T:  2697449 	 St: c0450000 Sz: 4096 	 Sm: 0 	 T: memcpy_h2d(1.758947)
F:  2697449----T:  2728172 	 St: c0451000 Sz: 258048 	 Sm: 0 	 T: memcpy_h2d(20.744766)
F:  2731858----T:  2734463 	 St: c0490000 Sz: 4096 	 Sm: 0 	 T: memcpy_h2d(1.758947)
F:  2734463----T:  2795299 	 St: c0491000 Sz: 520192 	 Sm: 0 	 T: memcpy_h2d(41.077652)
F:  2800179----T:  2800379 	 St: c0510c80 Sz: 128 	 Sm: 0 	 T: dma(0.135044)
F:  2800379----T:  2800579 	 St: c0510d00 Sz: 32 	 Sm: 0 	 T: dma(0.135044)
F:  2800579----T:  2800779 	 St: c0513200 Sz: 128 	 Sm: 0 	 T: dma(0.135044)
F:  2800779----T:  2800979 	 St: c0513280 Sz: 32 	 Sm: 0 	 T: dma(0.135044)
F:  2800979----T:  2804409 	 St: c0510000 Sz: 16384 	 Sm: 0 	 T: memcpy_h2d(2.316003)
F:  2804409----T:  2924086 	 St: c0514000 Sz: 1032192 	 Sm: 0 	 T: memcpy_h2d(80.808235)
F:  3152442----T:  3239983 	 	 	 Kl: 3 	 Sm: 0 	 T: kernel_launch(59.109386)
F:  3462133----T:  3517098 	 	 	 Kl: 4 	 Sm: 0 	 T: kernel_launch(37.113438)
F:  3739248----T:  3803377 	 	 	 Kl: 5 	 Sm: 0 	 T: kernel_launch(43.301147)
F:  4025527----T:  4111562 	 	 	 Kl: 6 	 Sm: 0 	 T: kernel_launch(58.092506)
F:  4333712----T:  4388641 	 	 	 Kl: 7 	 Sm: 0 	 T: kernel_launch(37.089130)
F:  4610791----T:  4675004 	 	 	 Kl: 8 	 Sm: 0 	 T: kernel_launch(43.357868)
F:  4897154----T:  4983386 	 	 	 Kl: 9 	 Sm: 0 	 T: kernel_launch(58.225525)
F:  5205536----T:  5260584 	 	 	 Kl: 10 	 Sm: 0 	 T: kernel_launch(37.169479)
F:  5482734----T:  5546854 	 	 	 Kl: 11 	 Sm: 0 	 T: kernel_launch(43.295071)
F:  5769004----T:  5855506 	 	 	 Kl: 12 	 Sm: 0 	 T: kernel_launch(58.407833)
F:  6077656----T:  6132752 	 	 	 Kl: 13 	 Sm: 0 	 T: kernel_launch(37.201889)
F:  6354902----T:  6419255 	 	 	 Kl: 14 	 Sm: 0 	 T: kernel_launch(43.452396)
F:  6641405----T:  6727880 	 	 	 Kl: 15 	 Sm: 0 	 T: kernel_launch(58.389603)
Tot_prefetch_time: 0(cycle), 0.000000(us)
Tot_kernel_exec_time: 3395630(cycle), 2292.795410(us)
Tot_kernel_exec_time_and_fault_time: 7394330(cycle), 4992.795410(us)
Tot_memcpy_h2d_time: 2357269(cycle), 1591.673828(us)
Tot_memcpy_d2h_time: 0(cycle), 0.000000(us)
Tot_memcpy_time: 2357269(cycle), 1591.673828(us)
Tot_devicesync_time: 0(cycle), 0.000000(us)
Tot_writeback_time: 0(cycle), 0.000000(us)
Tot_dma_time: 24600(cycle), 16.610399(us)
Tot_memcpy_d2h_sync_wb_time: 0(cycle), 0.000000(us)
GPGPU-Sim: *** exit detected ***
