

        *** GPGPU-Sim Simulator Version 3.2.2  [build gpgpu-sim_git-commit-1c1adf09f9d1bccf70ff97255c2b46b40ff0e800_modified_0] ***


GPGPU-Sim PTX: simulation mode 0 (can change with PTX_SIM_MODE_FUNC environment variable:
               1=functional simulation only, 0=detailed performance simulator)
GPGPU-Sim: Configuration options:

-network_mode                           1 # Interconnection network mode
-inter_config_file   config_fermi_islip.icnt # Interconnection network config file
-gpgpu_ptx_use_cuobjdump                    1 # Use cuobjdump to extract ptx and sass from binaries
-gpgpu_experimental_lib_support                    0 # Try to extract code from cuda libraries [Broken because of unknown cudaGetExportTable]
-gpgpu_ptx_convert_to_ptxplus                    0 # Convert SASS (native ISA) to ptxplus and run ptxplus
-gpgpu_ptx_force_max_capability                   20 # Force maximum compute capability
-gpgpu_ptx_inst_debug_to_file                    0 # Dump executed instructions' debug information to file
-gpgpu_ptx_inst_debug_file       inst_debug.txt # Executed instructions' debug output file
-gpgpu_ptx_inst_debug_thread_uid                    1 # Thread UID for executed instructions' debug output
-gpgpu_simd_model                       1 # 1 = post-dominator
-gpgpu_shader_core_pipeline              2048:32 # shader core pipeline config, i.e., {<nthread>:<warpsize>}
-gpgpu_tex_cache:l1  16:128:24,L:R:m:N:L,F:128:4,128:2 # per-shader L1 texture cache  (READ-ONLY) config  {<nsets>:<bsize>:<assoc>,<rep>:<wr>:<alloc>:<wr_alloc>,<mshr>:<N>:<merge>,<mq>:<rf>}
-gpgpu_const_cache:l1 128:64:2,L:R:f:N:L,A:2:64,4 # per-shader L1 constant memory cache  (READ-ONLY) config  {<nsets>:<bsize>:<assoc>,<rep>:<wr>:<alloc>:<wr_alloc>,<mshr>:<N>:<merge>,<mq>} 
-gpgpu_cache:il1     8:128:4,L:R:f:N:L,A:2:48,4 # shader L1 instruction cache config  {<nsets>:<bsize>:<assoc>,<rep>:<wr>:<alloc>:<wr_alloc>,<mshr>:<N>:<merge>,<mq>} 
-gpgpu_cache:dl1     64:128:6,L:L:m:N:H,A:128:8,8 # per-shader L1 data cache config  {<nsets>:<bsize>:<assoc>,<rep>:<wr>:<alloc>:<wr_alloc>,<mshr>:<N>:<merge>,<mq> | none}
-gpgpu_cache:dl1PrefL1                 none # per-shader L1 data cache config  {<nsets>:<bsize>:<assoc>,<rep>:<wr>:<alloc>:<wr_alloc>,<mshr>:<N>:<merge>,<mq> | none}
-gpgpu_cache:dl1PrefShared                 none # per-shader L1 data cache config  {<nsets>:<bsize>:<assoc>,<rep>:<wr>:<alloc>:<wr_alloc>,<mshr>:<N>:<merge>,<mq> | none}
-gmem_skip_L1D                          1 # global memory access skip L1D cache (implements -Xptxas -dlcm=cg, default=no skip)
-gpgpu_perfect_mem                      0 # enable perfect memory mode (no cache miss)
-n_regfile_gating_group                    4 # group of lanes that should be read/written together)
-gpgpu_clock_gated_reg_file                    0 # enable clock gated reg file for power calculations
-gpgpu_clock_gated_lanes                    0 # enable clock gated lanes for power calculations
-gpgpu_shader_registers                65536 # Number of registers per shader core. Limits number of concurrent CTAs. (default 8192)
-gpgpu_shader_cta                      32 # Maximum number of concurrent CTAs in shader (default 8)
-gpgpu_num_cta_barriers                   16 # Maximum number of named barriers per CTA (default 16)
-gpgpu_n_clusters                      28 # number of processing clusters
-gpgpu_n_cores_per_cluster                    1 # number of simd cores per cluster
-gpgpu_n_cluster_ejection_buffer_size                    8 # number of packets in ejection buffer
-gpgpu_n_ldst_response_buffer_size                    2 # number of response packets in ld/st unit ejection buffer
-gpgpu_shmem_size                   16384 # Size of shared memory per shader core (default 16kB)
-gpgpu_shmem_size                   98304 # Size of shared memory per shader core (default 16kB)
-gpgpu_shmem_size_PrefL1                16384 # Size of shared memory per shader core (default 16kB)
-gpgpu_shmem_size_PrefShared                16384 # Size of shared memory per shader core (default 16kB)
-gpgpu_shmem_num_banks                   32 # Number of banks in the shared memory in each shader core (default 16)
-gpgpu_shmem_limited_broadcast                    0 # Limit shared memory to do one broadcast per cycle (default on)
-gpgpu_shmem_warp_parts                    1 # Number of portions a warp is divided into for shared memory bank conflict check 
-gpgpu_warpdistro_shader                   -1 # Specify which shader core to collect the warp size distribution from
-gpgpu_warp_issue_shader                    0 # Specify which shader core to collect the warp issue distribution from
-gpgpu_local_mem_map                    1 # Mapping from local memory space address to simulated GPU physical address space (default = enabled)
-gpgpu_num_reg_banks                   32 # Number of register banks (default = 8)
-gpgpu_reg_bank_use_warp_id                    0 # Use warp ID in mapping registers to banks (default = off)
-gpgpu_operand_collector_num_units_sp                   20 # number of collector units (default = 4)
-gpgpu_operand_collector_num_units_sfu                    4 # number of collector units (default = 4)
-gpgpu_operand_collector_num_units_mem                    8 # number of collector units (default = 2)
-gpgpu_operand_collector_num_units_gen                    0 # number of collector units (default = 0)
-gpgpu_operand_collector_num_in_ports_sp                    4 # number of collector unit in ports (default = 1)
-gpgpu_operand_collector_num_in_ports_sfu                    1 # number of collector unit in ports (default = 1)
-gpgpu_operand_collector_num_in_ports_mem                    1 # number of collector unit in ports (default = 1)
-gpgpu_operand_collector_num_in_ports_gen                    0 # number of collector unit in ports (default = 0)
-gpgpu_operand_collector_num_out_ports_sp                    4 # number of collector unit in ports (default = 1)
-gpgpu_operand_collector_num_out_ports_sfu                    1 # number of collector unit in ports (default = 1)
-gpgpu_operand_collector_num_out_ports_mem                    1 # number of collector unit in ports (default = 1)
-gpgpu_operand_collector_num_out_ports_gen                    0 # number of collector unit in ports (default = 0)
-gpgpu_coalesce_arch                   13 # Coalescing arch (default = 13, anything else is off for now)
-gpgpu_num_sched_per_core                    2 # Number of warp schedulers per core
-gpgpu_max_insn_issue_per_warp                    2 # Max number of instructions that can be issued per warp in one cycle by scheduler
-gpgpu_simt_core_sim_order                    1 # Select the simulation order of cores in a cluster (0=Fix, 1=Round-Robin)
-gpgpu_pipeline_widths        4,1,1,4,1,1,6 # Pipeline widths ID_OC_SP,ID_OC_SFU,ID_OC_MEM,OC_EX_SP,OC_EX_SFU,OC_EX_MEM,EX_WB
-gpgpu_num_sp_units                     4 # Number of SP units (default=1)
-gpgpu_num_sfu_units                    1 # Number of SF units (default=1)
-gpgpu_num_mem_units                    1 # Number if ldst units (default=1) WARNING: not hooked up to anything
-gpgpu_scheduler                      gto # Scheduler configuration: < lrr | gto | two_level_active > If two_level_active:<num_active_warps>:<inner_prioritization>:<outer_prioritization>For complete list of prioritization values see shader.h enum scheduler_prioritization_typeDefault: gto
-gpgpu_concurrent_kernel_sm                    0 # Support concurrent kernels on a SM (default = disabled)
-tlb_size                            4096 # Number of tlb entries per SM.
-gpgpu_dram_scheduler                    1 # 0 = fifo, 1 = FR-FCFS (defaul)
-gpgpu_dram_partition_queues              8:8:8:8 # i2$:$2d:d2$:$2i
-l2_ideal                               0 # Use a ideal L2 cache that always hit
-gpgpu_cache:dl2     64:128:16,L:B:m:W:L,A:1024:1024,4:0,32 # unified banked L2 data cache config  {<nsets>:<bsize>:<assoc>,<rep>:<wr>:<alloc>:<wr_alloc>,<mshr>:<N>:<merge>,<mq>}
-gpgpu_cache:dl2_texture_only                    0 # L2 cache used for texture only
-gpgpu_n_mem                           11 # number of memory modules (e.g. memory controllers) in gpu
-gpgpu_n_sub_partition_per_mchannel                    2 # number of memory subpartition in each memory module
-gpgpu_n_mem_per_ctrlr                    1 # number of memory chips per memory controller
-gpgpu_memlatency_stat                   14 # track and display latency statistics 0x2 enables MC, 0x4 enables queue logs
-gpgpu_frfcfs_dram_sched_queue_size                   64 # 0 = unlimited (default); # entries per chip
-gpgpu_dram_return_queue_size                  116 # 0 = unlimited (default); # entries per chip
-gpgpu_dram_buswidth                    4 # default = 4 bytes (8 bytes per cycle at DDR)
-gpgpu_dram_burst_length                    8 # Burst length of each DRAM request (default = 4 data bus cycle)
-dram_data_command_freq_ratio                    4 # Frequency ratio between DRAM data bus and command bus (default = 2 times, i.e. DDR)
-gpgpu_dram_timing_opt nbk=16:CCD=2:RRD=6:RCD=12:RAS=28:RP=12:RC=40: CL=12:WL=4:CDLR=5:WR=12:nbkgrp=1:CCDL=0:RTPL=0 # DRAM timing parameters = {nbk:tCCD:tRRD:tRCD:tRAS:tRP:tRC:CL:WL:tCDLR:tWR:nbkgrp:tCCDL:tRTPL}
-rop_latency                          120 # ROP queue latency (default 85)
-dram_latency                         100 # DRAM latency (default 30)
-gpgpu_mem_addr_mapping dramid@8;00000000.00000000.00000000.00000000.0000RRRR.RRRRRRRR.RBBBCCCC.BCCSSSSS # mapping memory address to dram model {dramid@<start bit>;<memory address map>}
-gpgpu_mem_addr_test                    0 # run sweep test to check address mapping for aliased address
-gpgpu_mem_address_mask                    1 # 0 = old addressing mask, 1 = new addressing mask, 2 = new add. mask + flipped bank sel and chip sel bits
-gpuwattch_xml_file  gpuwattch_geforcegtx1080ti.xml # GPUWattch XML file
-power_simulation_enabled                    1 # Turn on power simulator (1=On, 0=Off)
-power_per_cycle_dump                    0 # Dump detailed power output each cycle
-power_trace_enabled                    0 # produce a file for the power trace (1=On, 0=Off)
-power_trace_zlevel                     6 # Compression level of the power trace output log (0=no comp, 9=highest)
-steady_power_levels_enabled                    0 # produce a file for the steady power levels (1=On, 0=Off)
-steady_state_definition                  8:4 # allowed deviation:number of samples
-gpgpu_max_cycle                        0 # terminates gpu simulation early (0 = no limit)
-gpgpu_max_insn                         0 # terminates gpu simulation early (0 = no limit)
-gpgpu_max_cta                          0 # terminates gpu simulation early (0 = no limit)
-gpgpu_runtime_stat                   500 # display runtime statistics such as dram utilization {<freq>:<flag>}
-liveness_message_freq                    1 # Minimum number of seconds between simulation liveness messages (0 = always print)
-gpgpu_flush_l1_cache                    0 # Flush L1 cache at the end of each kernel call
-gpgpu_flush_l2_cache                    0 # Flush L2 cache at the end of each kernel call
-gpgpu_deadlock_detect                    0 # Stop the simulation at deadlock (1=on (default), 0=off)
-gpgpu_ptx_instruction_classification                    0 # if enabled will classify ptx instruction types per kernel (Max 255 kernels now)
-gpgpu_ptx_sim_mode                     0 # Select between Performance (default) or Functional simulation (1)
-gpgpu_clock_domains 1481.0:2962.0:1481.0:2750.0 # Clock Domain Frequencies in MhZ {<Core Clock>:<ICNT Clock>:<L2 Clock>:<DRAM Clock>}
-gpgpu_max_concurrent_kernel                    8 # maximum kernels that can run concurrently on GPU
-gpgpu_cflog_interval                    0 # Interval between each snapshot in control flow logger
-visualizer_enabled                     0 # Turn on visualizer output (1=On, 0=Off)
-visualizer_outputfile                 NULL # Specifies the output log file for visualizer
-visualizer_zlevel                      6 # Compression level of the visualizer output log (0=no comp, 9=highest)
-trace_enabled                          0 # Turn on traces
-trace_components                    none # comma seperated list of traces to enable. Complete list found in trace_streams.tup. Default none
-trace_sampling_core                    0 # The core which is printed using CORE_DPRINTF. Default 0
-trace_sampling_memory_partition                   -1 # The memory partition which is printed using MEMPART_DPRINTF. Default -1 (i.e. all)
-gddr_size                            1GB # Size of GDDR in MB/GB.(GLOBAL_HEAP_START, GLOBAL_HEAP_START + gddr_size) would be used for unmanged memory, (GLOBAL_HEAP_START + gddr_size, GLOBAL_HEAP_START + gddr_size*2) would be used for managed memory. 
-page_table_walk_latency                  100 # Average page table walk latency (in core cycle).
-eviction_policy                        0 # Select page eviction policy
-invalidate_clean                       0 # Should directly invalidate clean pages
-reserve_accessed_page_percent                    0 # Percentage of accessed pages reserved from eviction in hope that they will be accessed in next iteration.
-percentage_of_free_page_buffer                    0 # Percentage of free page buffer to trigger the page eviction.
-page_size                            4KB # GDDR page size, only 4KB/2MB avaliable.
-pcie_bandwidth                  16.0GB/s # PCI-e bandwidth per direction, in GB/s.
-enable_dma                             0 # Enable direct access to CPU memory
-multiply_dma_penalty                    2 # Oversubscription Multiplicative Penalty Factor for Adaptive DMA
-migrate_threshold                      8 # Access counter threshold for migrating the page from cpu to gpu
-sim_prof_enable                        1 # Enable gpgpu-sim profiler
-hardware_prefetch                      2 # Select gpgpu-sim hardware prefetcher
-hwprefetch_oversub                     1 # Select gpgpu-sim hardware prefetcher under over-subscription
-page_fault_latency                 66645 # Average fault latency (in core cycle).
-enable_accurate_simulation                    0 # Enable page fault functional simulation.
-enable_ptx_file_line_stats                    1 # Turn on PTX source line statistic profiling. (1 = On)
-ptx_line_stats_filename gpgpu_inst_stats.txt # Output file for PTX source line statistics.
-gpgpu_kernel_launch_latency               222150 # Kernel launch latency in cycles. Default: 0
-gpgpu_cdp_enabled                      0 # Turn on CDP
-save_embedded_ptx                      0 # saves ptx files embedded in binary as <n>.ptx
-keep                                   0 # keep intermediate files created by GPGPU-Sim when interfacing with external programs
-gpgpu_ptx_save_converted_ptxplus                    0 # Saved converted ptxplus to a file
-ptx_opcode_latency_int         4,13,4,5,145 # Opcode latencies for integers <ADD,MAX,MUL,MAD,DIV>Default 1,1,19,25,145
-ptx_opcode_latency_fp          4,13,4,5,39 # Opcode latencies for single precision floating points <ADD,MAX,MUL,MAD,DIV>Default 1,1,1,1,30
-ptx_opcode_latency_dp         8,19,8,8,330 # Opcode latencies for double precision floating points <ADD,MAX,MUL,MAD,DIV>Default 8,8,8,8,335
-ptx_opcode_initiation_int            1,2,2,2,8 # Opcode initiation intervals for integers <ADD,MAX,MUL,MAD,DIV>Default 1,1,4,4,32
-ptx_opcode_initiation_fp            1,2,1,1,4 # Opcode initiation intervals for single precision floating points <ADD,MAX,MUL,MAD,DIV>Default 1,1,1,1,5
-ptx_opcode_initiation_dp          1,2,1,1,130 # Opcode initiation intervals for double precision floating points <ADD,MAX,MUL,MAD,DIV>Default 8,8,8,8,130
-cdp_latency         7200,8000,100,12000,1600 # CDP API latency <cudaStreamCreateWithFlags, cudaGetParameterBufferV2_init_perWarp, cudaGetParameterBufferV2_perKernel, cudaLaunchDeviceV2_init_perWarp, cudaLaunchDevicV2_perKernel>Default 7200,8000,100,12000,1600
DRAM Timing Options:
nbk                                    16 # number of banks
CCD                                     2 # column to column delay
RRD                                     6 # minimal delay between activation of rows in different banks
RCD                                    12 # row to column delay
RAS                                    28 # time needed to activate row
RP                                     12 # time needed to precharge (deactivate) row
RC                                     40 # row cycle time
CDLR                                    5 # switching from write to read (changes tWTR)
WR                                     12 # last data-in to row precharge
CL                                     12 # CAS latency
WL                                      4 # Write latency
nbkgrp                                  1 # number of bank groups
CCDL                                    0 # column to column delay between accesses to different bank groups
RTPL                                    0 # read to precharge delay between accesses to different bank groups
Total number of memory sub partition = 22
addr_dec_mask[CHIP]  = 0000000000000000 	high:64 low:0
addr_dec_mask[BK]    = 0000000000007080 	high:15 low:7
addr_dec_mask[ROW]   = 000000000fff8000 	high:28 low:15
addr_dec_mask[COL]   = 0000000000000f7f 	high:12 low:0
addr_dec_mask[BURST] = 000000000000001f 	high:5 low:0
sub_partition_id_mask = 0000000000000080
GPGPU-Sim uArch: clock freqs: 1481000000.000000:2962000000.000000:1481000000.000000:2750000000.000000
GPGPU-Sim uArch: clock periods: 0.00000000067521944632:0.00000000033760972316:0.00000000067521944632:0.00000000036363636364
*** Initializing Memory Statistics ***
GPGPU-Sim uArch: interconnect node map (shaderID+MemID to icntID)
GPGPU-Sim uArch: Memory nodes ID start from index: 28
GPGPU-Sim uArch:    0   1   2   3   4   5   6
GPGPU-Sim uArch:    7   8   9  10  11  12  13
GPGPU-Sim uArch:   14  15  16  17  18  19  20
GPGPU-Sim uArch:   21  22  23  24  25  26  27
GPGPU-Sim uArch:   28  29  30  31  32  33  34
GPGPU-Sim uArch:   35  36  37  38  39  40  41
GPGPU-Sim uArch:   42  43  44  45  46  47  48
GPGPU-Sim uArch:   49
GPGPU-Sim uArch: interconnect node reverse map (icntID to shaderID+MemID)
GPGPU-Sim uArch: Memory nodes start from ID: 28
GPGPU-Sim uArch:    0   1   2   3   4   5   6
GPGPU-Sim uArch:    7   8   9  10  11  12  13
GPGPU-Sim uArch:   14  15  16  17  18  19  20
GPGPU-Sim uArch:   21  22  23  24  25  26  27
GPGPU-Sim uArch:   28  29  30  31  32  33  34
GPGPU-Sim uArch:   35  36  37  38  39  40  41
GPGPU-Sim uArch:   42  43  44  45  46  47  48
GPGPU-Sim uArch:   49
8aa444bebaa7cbfca23dcaf7b8db40c4  /root/gpgpu-sim_UVMSmart/benchmarks/Managed/backprop/backprop
GPGPU-Sim uArch: performance model initialization complete.
GPGPU-Sim PTX: __cudaRegisterFatBinary, fat_cubin_handle = 1, filename=default
self exe links to: /root/gpgpu-sim_UVMSmart/benchmarks/Managed/backprop/backprop
Running md5sum using "md5sum /root/gpgpu-sim_UVMSmart/benchmarks/Managed/backprop/backprop "
Parsing file _cuobjdump_complete_output_xV2PhX
######### cuobjdump parser ########
## Adding new section ELF
Adding arch: sm_20
Adding identifier: default
## Adding new section ELF
Adding arch: sm_20
Adding identifier: default
## Adding new section PTX
Adding ptx filename: _cuobjdump_1.ptx
Adding arch: sm_20
Adding identifier: default
Done parsing!!!
GPGPU-Sim PTX: __cudaRegisterFunction _Z24bpnn_adjust_weights_cudaPfiS_iS_S_ : hostFun 0x0x402d51, fat_cubin_handle = 1
GPGPU-Sim PTX: allocating shared region for "_Z22bpnn_layerforward_CUDAPfS_S_S_ii$__cuda_local_var_17900_34_non_const_input_node" from 0x0 to 0x40 (shared memory space)
GPGPU-Sim PTX: allocating shared region for "_Z22bpnn_layerforward_CUDAPfS_S_S_ii$__cuda_local_var_17901_34_non_const_weight_matrix" from 0x80 to 0x480 (shared memory space)
GPGPU-Sim PTX: instruction assembly for function '_Z22bpnn_layerforward_CUDAPfS_S_S_ii'...   done.
GPGPU-Sim PTX: finding reconvergence points for '_Z22bpnn_layerforward_CUDAPfS_S_S_ii'...
GPGPU-Sim PTX: Finding dominators for '_Z22bpnn_layerforward_CUDAPfS_S_S_ii'...
GPGPU-Sim PTX: Finding immediate dominators for '_Z22bpnn_layerforward_CUDAPfS_S_S_ii'...
GPGPU-Sim PTX: Finding postdominators for '_Z22bpnn_layerforward_CUDAPfS_S_S_ii'...
GPGPU-Sim PTX: Finding immediate postdominators for '_Z22bpnn_layerforward_CUDAPfS_S_S_ii'...
GPGPU-Sim PTX: pre-decoding instructions for '_Z22bpnn_layerforward_CUDAPfS_S_S_ii'...
GPGPU-Sim PTX: reconvergence points for _Z22bpnn_layerforward_CUDAPfS_S_S_ii...
GPGPU-Sim PTX:  1 (potential) branch divergence @  PC=0x068 (_1.ptx:47) @%p2 bra BB0_2;
GPGPU-Sim PTX:    immediate post dominator      @  PC=0x0a0 (_1.ptx:57) cvta.to.global.u64 %rd3, %rd8;
GPGPU-Sim PTX:  2 (potential) branch divergence @  PC=0x168 (_1.ptx:82) @%p3 bra BB0_7;
GPGPU-Sim PTX:    immediate post dominator      @  PC=0x250 (_1.ptx:119) setp.eq.s32%p1, %r3, 0;
GPGPU-Sim PTX:  3 (potential) branch divergence @  PC=0x1c8 (_1.ptx:97) @%p4 bra BB0_6;
GPGPU-Sim PTX:    immediate post dominator      @  PC=0x228 (_1.ptx:112) bar.sync 0;
GPGPU-Sim PTX:  4 (potential) branch divergence @  PC=0x248 (_1.ptx:116) @%p5 bra BB0_4;
GPGPU-Sim PTX:    immediate post dominator      @  PC=0x250 (_1.ptx:119) setp.eq.s32%p1, %r3, 0;
GPGPU-Sim PTX:  5 (potential) branch divergence @  PC=0x270 (_1.ptx:123) @!%p1 bra BB0_9;
GPGPU-Sim PTX:    immediate post dominator      @  PC=0x2c8 (_1.ptx:138) ret;
GPGPU-Sim PTX:  6 (potential) branch divergence @  PC=0x278 (_1.ptx:124) bra.uni BB0_8;
GPGPU-Sim PTX:    immediate post dominator      @  PC=0x280 (_1.ptx:127) cvt.u32.u64%r20, %rd1;
GPGPU-Sim PTX: ... end of reconvergence points for _Z22bpnn_layerforward_CUDAPfS_S_S_ii
GPGPU-Sim PTX: ... done pre-decoding instructions for '_Z22bpnn_layerforward_CUDAPfS_S_S_ii'.
GPGPU-Sim PTX: instruction assembly for function '_Z24bpnn_adjust_weights_cudaPfiS_iS_S_'...   done.
GPGPU-Sim PTX: finding reconvergence points for '_Z24bpnn_adjust_weights_cudaPfiS_iS_S_'...
GPGPU-Sim PTX: Finding dominators for '_Z24bpnn_adjust_weights_cudaPfiS_iS_S_'...
GPGPU-Sim PTX: Finding immediate dominators for '_Z24bpnn_adjust_weights_cudaPfiS_iS_S_'...
GPGPU-Sim PTX: Finding postdominators for '_Z24bpnn_adjust_weights_cudaPfiS_iS_S_'...
GPGPU-Sim PTX: Finding immediate postdominators for '_Z24bpnn_adjust_weights_cudaPfiS_iS_S_'...
GPGPU-Sim PTX: pre-decoding instructions for '_Z24bpnn_adjust_weights_cudaPfiS_iS_S_'...
GPGPU-Sim PTX: reconvergence points for _Z24bpnn_adjust_weights_cudaPfiS_iS_S_...
GPGPU-Sim PTX:  1 (potential) branch divergence @  PC=0x470 (_1.ptx:210) @%p1 bra BB1_2;
GPGPU-Sim PTX:    immediate post dominator      @  PC=0x530 (_1.ptx:237) ret;
GPGPU-Sim PTX: ... end of reconvergence points for _Z24bpnn_adjust_weights_cudaPfiS_iS_S_
GPGPU-Sim PTX: ... done pre-decoding instructions for '_Z24bpnn_adjust_weights_cudaPfiS_iS_S_'.
GPGPU-Sim PTX: finished parsing EMBEDDED .ptx file _1.ptx
Adding _cuobjdump_1.ptx with cubin handle 1
GPGPU-Sim PTX: extracting embedded .ptx to temporary file "_ptx_WRwuZ7"
Running: cat _ptx_WRwuZ7 | sed 's/.version 1.5/.version 1.4/' | sed 's/, texmode_independent//' | sed 's/\(\.extern \.const\[1\] .b8 \w\+\)\[\]/\1\[1\]/' | sed 's/const\[.\]/const\[0\]/g' > _ptx2_PL59Gi
GPGPU-Sim PTX: generating ptxinfo using "$CUDA_INSTALL_PATH/bin/ptxas --gpu-name=sm_20 -v _ptx2_PL59Gi --output-file  /dev/null 2> _ptx_WRwuZ7info"
GPGPU-Sim PTX: Kernel '_Z24bpnn_adjust_weights_cudaPfiS_iS_S_' : regs=22, lmem=0, smem=0, cmem=80
GPGPU-Sim PTX: Kernel '_Z22bpnn_layerforward_CUDAPfS_S_S_ii' : regs=11, lmem=0, smem=1088, cmem=72
GPGPU-Sim PTX: removing ptxinfo using "rm -f _ptx_WRwuZ7 _ptx2_PL59Gi _ptx_WRwuZ7info"
GPGPU-Sim PTX: loading globals with explicit initializers... 
GPGPU-Sim PTX: finished loading globals (0 bytes total).
GPGPU-Sim PTX: loading constants with explicit initializers...  done.
GPGPU-Sim PTX: __cudaRegisterFunction _Z22bpnn_layerforward_CUDAPfS_S_S_ii : hostFun 0x0x402c00, fat_cubin_handle = 1
Random number generator seed: 7
Input layer size : 131056
Starting training kernel
Performing GPU computation

GPGPU-Sim PTX: cudaLaunch for 0x0x402c00 (mode=performance simulation) on stream 0
GPGPU-Sim PTX: pushing kernel '_Z22bpnn_layerforward_CUDAPfS_S_S_ii' to stream 0, gridDim= (1,8191,1) blockDim = (16,16,1) 
GPGPU-Sim uArch: Shader 1 bind to kernel 1 '_Z22bpnn_layerforward_CUDAPfS_S_S_ii'
GPGPU-Sim uArch: CTA/core = 8, limited by: threads
GPGPU-Sim uArch: Shader 2 bind to kernel 1 '_Z22bpnn_layerforward_CUDAPfS_S_S_ii'
GPGPU-Sim uArch: Shader 3 bind to kernel 1 '_Z22bpnn_layerforward_CUDAPfS_S_S_ii'
GPGPU-Sim uArch: Shader 4 bind to kernel 1 '_Z22bpnn_layerforward_CUDAPfS_S_S_ii'
GPGPU-Sim uArch: Shader 5 bind to kernel 1 '_Z22bpnn_layerforward_CUDAPfS_S_S_ii'
GPGPU-Sim uArch: Shader 6 bind to kernel 1 '_Z22bpnn_layerforward_CUDAPfS_S_S_ii'
GPGPU-Sim uArch: Shader 7 bind to kernel 1 '_Z22bpnn_layerforward_CUDAPfS_S_S_ii'
GPGPU-Sim uArch: Shader 8 bind to kernel 1 '_Z22bpnn_layerforward_CUDAPfS_S_S_ii'
GPGPU-Sim uArch: Shader 9 bind to kernel 1 '_Z22bpnn_layerforward_CUDAPfS_S_S_ii'
GPGPU-Sim uArch: Shader 10 bind to kernel 1 '_Z22bpnn_layerforward_CUDAPfS_S_S_ii'
GPGPU-Sim uArch: Shader 11 bind to kernel 1 '_Z22bpnn_layerforward_CUDAPfS_S_S_ii'
GPGPU-Sim uArch: Shader 12 bind to kernel 1 '_Z22bpnn_layerforward_CUDAPfS_S_S_ii'
GPGPU-Sim uArch: Shader 13 bind to kernel 1 '_Z22bpnn_layerforward_CUDAPfS_S_S_ii'
GPGPU-Sim uArch: Shader 14 bind to kernel 1 '_Z22bpnn_layerforward_CUDAPfS_S_S_ii'
GPGPU-Sim uArch: Shader 15 bind to kernel 1 '_Z22bpnn_layerforward_CUDAPfS_S_S_ii'
GPGPU-Sim uArch: Shader 16 bind to kernel 1 '_Z22bpnn_layerforward_CUDAPfS_S_S_ii'
GPGPU-Sim uArch: Shader 17 bind to kernel 1 '_Z22bpnn_layerforward_CUDAPfS_S_S_ii'
GPGPU-Sim uArch: Shader 18 bind to kernel 1 '_Z22bpnn_layerforward_CUDAPfS_S_S_ii'
GPGPU-Sim uArch: Shader 19 bind to kernel 1 '_Z22bpnn_layerforward_CUDAPfS_S_S_ii'
GPGPU-Sim uArch: Shader 20 bind to kernel 1 '_Z22bpnn_layerforward_CUDAPfS_S_S_ii'
GPGPU-Sim uArch: Shader 21 bind to kernel 1 '_Z22bpnn_layerforward_CUDAPfS_S_S_ii'
GPGPU-Sim uArch: Shader 22 bind to kernel 1 '_Z22bpnn_layerforward_CUDAPfS_S_S_ii'
GPGPU-Sim uArch: Shader 23 bind to kernel 1 '_Z22bpnn_layerforward_CUDAPfS_S_S_ii'
GPGPU-Sim uArch: Shader 24 bind to kernel 1 '_Z22bpnn_layerforward_CUDAPfS_S_S_ii'
GPGPU-Sim uArch: Shader 25 bind to kernel 1 '_Z22bpnn_layerforward_CUDAPfS_S_S_ii'
GPGPU-Sim uArch: Shader 26 bind to kernel 1 '_Z22bpnn_layerforward_CUDAPfS_S_S_ii'
GPGPU-Sim uArch: Shader 27 bind to kernel 1 '_Z22bpnn_layerforward_CUDAPfS_S_S_ii'
GPGPU-Sim uArch: Shader 0 bind to kernel 1 '_Z22bpnn_layerforward_CUDAPfS_S_S_ii'
GPGPU-Sim uArch: Shader 25 bind to kernel 1 '_Z22bpnn_layerforward_CUDAPfS_S_S_ii'
GPGPU-Sim uArch: Shader 26 bind to kernel 1 '_Z22bpnn_layerforward_CUDAPfS_S_S_ii'
GPGPU-Sim uArch: Shader 27 bind to kernel 1 '_Z22bpnn_layerforward_CUDAPfS_S_S_ii'
GPGPU-Sim uArch: Shader 0 bind to kernel 1 '_Z22bpnn_layerforward_CUDAPfS_S_S_ii'
GPGPU-Sim uArch: Shader 1 bind to kernel 1 '_Z22bpnn_layerforward_CUDAPfS_S_S_ii'
GPGPU-Sim uArch: Shader 2 bind to kernel 1 '_Z22bpnn_layerforward_CUDAPfS_S_S_ii'
GPGPU-Sim uArch: Shader 3 bind to kernel 1 '_Z22bpnn_layerforward_CUDAPfS_S_S_ii'
GPGPU-Sim uArch: Shader 4 bind to kernel 1 '_Z22bpnn_layerforward_CUDAPfS_S_S_ii'
GPGPU-Sim uArch: Shader 5 bind to kernel 1 '_Z22bpnn_layerforward_CUDAPfS_S_S_ii'
GPGPU-Sim uArch: Shader 6 bind to kernel 1 '_Z22bpnn_layerforward_CUDAPfS_S_S_ii'
GPGPU-Sim uArch: Shader 7 bind to kernel 1 '_Z22bpnn_layerforward_CUDAPfS_S_S_ii'
GPGPU-Sim uArch: Shader 8 bind to kernel 1 '_Z22bpnn_layerforward_CUDAPfS_S_S_ii'
GPGPU-Sim uArch: Shader 9 bind to kernel 1 '_Z22bpnn_layerforward_CUDAPfS_S_S_ii'
GPGPU-Sim uArch: Shader 10 bind to kernel 1 '_Z22bpnn_layerforward_CUDAPfS_S_S_ii'
GPGPU-Sim uArch: Shader 13 bind to kernel 1 '_Z22bpnn_layerforward_CUDAPfS_S_S_ii'
GPGPU-Sim uArch: Shader 17 bind to kernel 1 '_Z22bpnn_layerforward_CUDAPfS_S_S_ii'
GPGPU-Sim uArch: Shader 17 bind to kernel 1 '_Z22bpnn_layerforward_CUDAPfS_S_S_ii'
GPGPU-Sim uArch: Shader 24 bind to kernel 1 '_Z22bpnn_layerforward_CUDAPfS_S_S_ii'
GPGPU-Sim uArch: Shader 15 bind to kernel 1 '_Z22bpnn_layerforward_CUDAPfS_S_S_ii'
GPGPU-Sim uArch: Shader 15 bind to kernel 1 '_Z22bpnn_layerforward_CUDAPfS_S_S_ii'
GPGPU-Sim uArch: Shader 16 bind to kernel 1 '_Z22bpnn_layerforward_CUDAPfS_S_S_ii'
GPGPU-Sim uArch: Shader 22 bind to kernel 1 '_Z22bpnn_layerforward_CUDAPfS_S_S_ii'
GPGPU-Sim uArch: Shader 23 bind to kernel 1 '_Z22bpnn_layerforward_CUDAPfS_S_S_ii'
GPGPU-Sim uArch: Shader 17 bind to kernel 1 '_Z22bpnn_layerforward_CUDAPfS_S_S_ii'
GPGPU-Sim uArch: Shader 9 bind to kernel 1 '_Z22bpnn_layerforward_CUDAPfS_S_S_ii'
GPGPU-Sim uArch: Shader 10 bind to kernel 1 '_Z22bpnn_layerforward_CUDAPfS_S_S_ii'
GPGPU-Sim uArch: Shader 13 bind to kernel 1 '_Z22bpnn_layerforward_CUDAPfS_S_S_ii'
GPGPU-Sim uArch: Shader 17 bind to kernel 1 '_Z22bpnn_layerforward_CUDAPfS_S_S_ii'
GPGPU-Sim uArch: Shader 5 bind to kernel 1 '_Z22bpnn_layerforward_CUDAPfS_S_S_ii'
GPGPU-Sim uArch: Shader 6 bind to kernel 1 '_Z22bpnn_layerforward_CUDAPfS_S_S_ii'
GPGPU-Sim uArch: Shader 7 bind to kernel 1 '_Z22bpnn_layerforward_CUDAPfS_S_S_ii'
GPGPU-Sim uArch: Shader 11 bind to kernel 1 '_Z22bpnn_layerforward_CUDAPfS_S_S_ii'
GPGPU-Sim uArch: Shader 12 bind to kernel 1 '_Z22bpnn_layerforward_CUDAPfS_S_S_ii'
GPGPU-Sim uArch: Shader 13 bind to kernel 1 '_Z22bpnn_layerforward_CUDAPfS_S_S_ii'
GPGPU-Sim uArch: Shader 14 bind to kernel 1 '_Z22bpnn_layerforward_CUDAPfS_S_S_ii'
GPGPU-Sim uArch: Shader 15 bind to kernel 1 '_Z22bpnn_layerforward_CUDAPfS_S_S_ii'
GPGPU-Sim uArch: Shader 16 bind to kernel 1 '_Z22bpnn_layerforward_CUDAPfS_S_S_ii'
GPGPU-Sim uArch: Shader 17 bind to kernel 1 '_Z22bpnn_layerforward_CUDAPfS_S_S_ii'
GPGPU-Sim uArch: Shader 18 bind to kernel 1 '_Z22bpnn_layerforward_CUDAPfS_S_S_ii'
GPGPU-Sim uArch: Shader 19 bind to kernel 1 '_Z22bpnn_layerforward_CUDAPfS_S_S_ii'
GPGPU-Sim uArch: Shader 20 bind to kernel 1 '_Z22bpnn_layerforward_CUDAPfS_S_S_ii'
GPGPU-Sim uArch: Shader 21 bind to kernel 1 '_Z22bpnn_layerforward_CUDAPfS_S_S_ii'
GPGPU-Sim uArch: Shader 22 bind to kernel 1 '_Z22bpnn_layerforward_CUDAPfS_S_S_ii'
GPGPU-Sim uArch: Shader 23 bind to kernel 1 '_Z22bpnn_layerforward_CUDAPfS_S_S_ii'
GPGPU-Sim uArch: Shader 24 bind to kernel 1 '_Z22bpnn_layerforward_CUDAPfS_S_S_ii'
GPGPU-Sim uArch: Shader 25 bind to kernel 1 '_Z22bpnn_layerforward_CUDAPfS_S_S_ii'
GPGPU-Sim uArch: Shader 26 bind to kernel 1 '_Z22bpnn_layerforward_CUDAPfS_S_S_ii'
GPGPU-Sim uArch: Shader 27 bind to kernel 1 '_Z22bpnn_layerforward_CUDAPfS_S_S_ii'
GPGPU-Sim uArch: Shader 0 bind to kernel 1 '_Z22bpnn_layerforward_CUDAPfS_S_S_ii'
GPGPU-Sim uArch: Shader 1 bind to kernel 1 '_Z22bpnn_layerforward_CUDAPfS_S_S_ii'
GPGPU-Sim uArch: Shader 2 bind to kernel 1 '_Z22bpnn_layerforward_CUDAPfS_S_S_ii'
GPGPU-Sim uArch: Shader 3 bind to kernel 1 '_Z22bpnn_layerforward_CUDAPfS_S_S_ii'
GPGPU-Sim uArch: Shader 4 bind to kernel 1 '_Z22bpnn_layerforward_CUDAPfS_S_S_ii'
GPGPU-Sim uArch: Shader 5 bind to kernel 1 '_Z22bpnn_layerforward_CUDAPfS_S_S_ii'
GPGPU-Sim uArch: Shader 6 bind to kernel 1 '_Z22bpnn_layerforward_CUDAPfS_S_S_ii'
GPGPU-Sim uArch: Shader 7 bind to kernel 1 '_Z22bpnn_layerforward_CUDAPfS_S_S_ii'
GPGPU-Sim uArch: Shader 8 bind to kernel 1 '_Z22bpnn_layerforward_CUDAPfS_S_S_ii'
GPGPU-Sim uArch: Shader 9 bind to kernel 1 '_Z22bpnn_layerforward_CUDAPfS_S_S_ii'
GPGPU-Sim uArch: Shader 10 bind to kernel 1 '_Z22bpnn_layerforward_CUDAPfS_S_S_ii'
GPGPU-Sim uArch: Shader 11 bind to kernel 1 '_Z22bpnn_layerforward_CUDAPfS_S_S_ii'
GPGPU-Sim uArch: Shader 12 bind to kernel 1 '_Z22bpnn_layerforward_CUDAPfS_S_S_ii'
GPGPU-Sim uArch: Shader 13 bind to kernel 1 '_Z22bpnn_layerforward_CUDAPfS_S_S_ii'
GPGPU-Sim uArch: Shader 14 bind to kernel 1 '_Z22bpnn_layerforward_CUDAPfS_S_S_ii'
GPGPU-Sim uArch: Shader 11 bind to kernel 1 '_Z22bpnn_layerforward_CUDAPfS_S_S_ii'
GPGPU-Sim uArch: Shader 12 bind to kernel 1 '_Z22bpnn_layerforward_CUDAPfS_S_S_ii'
GPGPU-Sim uArch: Shader 13 bind to kernel 1 '_Z22bpnn_layerforward_CUDAPfS_S_S_ii'
GPGPU-Sim uArch: Shader 14 bind to kernel 1 '_Z22bpnn_layerforward_CUDAPfS_S_S_ii'
GPGPU-Sim uArch: Shader 15 bind to kernel 1 '_Z22bpnn_layerforward_CUDAPfS_S_S_ii'
GPGPU-Sim uArch: Shader 16 bind to kernel 1 '_Z22bpnn_layerforward_CUDAPfS_S_S_ii'
GPGPU-Sim uArch: Shader 17 bind to kernel 1 '_Z22bpnn_layerforward_CUDAPfS_S_S_ii'
GPGPU-Sim uArch: Shader 18 bind to kernel 1 '_Z22bpnn_layerforward_CUDAPfS_S_S_ii'
GPGPU-Sim uArch: Shader 19 bind to kernel 1 '_Z22bpnn_layerforward_CUDAPfS_S_S_ii'
GPGPU-Sim uArch: Shader 20 bind to kernel 1 '_Z22bpnn_layerforward_CUDAPfS_S_S_ii'
GPGPU-Sim uArch: Shader 21 bind to kernel 1 '_Z22bpnn_layerforward_CUDAPfS_S_S_ii'
GPGPU-Sim uArch: Shader 22 bind to kernel 1 '_Z22bpnn_layerforward_CUDAPfS_S_S_ii'
GPGPU-Sim uArch: Shader 23 bind to kernel 1 '_Z22bpnn_layerforward_CUDAPfS_S_S_ii'
GPGPU-Sim uArch: Shader 24 bind to kernel 1 '_Z22bpnn_layerforward_CUDAPfS_S_S_ii'
GPGPU-Sim uArch: Shader 25 bind to kernel 1 '_Z22bpnn_layerforward_CUDAPfS_S_S_ii'
GPGPU-Sim uArch: Shader 26 bind to kernel 1 '_Z22bpnn_layerforward_CUDAPfS_S_S_ii'
GPGPU-Sim uArch: Shader 27 bind to kernel 1 '_Z22bpnn_layerforward_CUDAPfS_S_S_ii'
GPGPU-Sim uArch: Shader 0 bind to kernel 1 '_Z22bpnn_layerforward_CUDAPfS_S_S_ii'
GPGPU-Sim uArch: Shader 1 bind to kernel 1 '_Z22bpnn_layerforward_CUDAPfS_S_S_ii'
GPGPU-Sim uArch: Shader 2 bind to kernel 1 '_Z22bpnn_layerforward_CUDAPfS_S_S_ii'
GPGPU-Sim uArch: Shader 3 bind to kernel 1 '_Z22bpnn_layerforward_CUDAPfS_S_S_ii'
GPGPU-Sim uArch: Shader 4 bind to kernel 1 '_Z22bpnn_layerforward_CUDAPfS_S_S_ii'
GPGPU-Sim uArch: Shader 5 bind to kernel 1 '_Z22bpnn_layerforward_CUDAPfS_S_S_ii'
GPGPU-Sim uArch: Shader 6 bind to kernel 1 '_Z22bpnn_layerforward_CUDAPfS_S_S_ii'
GPGPU-Sim uArch: Shader 7 bind to kernel 1 '_Z22bpnn_layerforward_CUDAPfS_S_S_ii'
GPGPU-Sim uArch: Shader 8 bind to kernel 1 '_Z22bpnn_layerforward_CUDAPfS_S_S_ii'
GPGPU-Sim uArch: Shader 9 bind to kernel 1 '_Z22bpnn_layerforward_CUDAPfS_S_S_ii'
GPGPU-Sim uArch: Shader 10 bind to kernel 1 '_Z22bpnn_layerforward_CUDAPfS_S_S_ii'
GPGPU-Sim uArch: Shader 1 bind to kernel 1 '_Z22bpnn_layerforward_CUDAPfS_S_S_ii'
GPGPU-Sim uArch: Shader 2 bind to kernel 1 '_Z22bpnn_layerforward_CUDAPfS_S_S_ii'
GPGPU-Sim uArch: Shader 3 bind to kernel 1 '_Z22bpnn_layerforward_CUDAPfS_S_S_ii'
GPGPU-Sim uArch: Shader 4 bind to kernel 1 '_Z22bpnn_layerforward_CUDAPfS_S_S_ii'
GPGPU-Sim uArch: Shader 5 bind to kernel 1 '_Z22bpnn_layerforward_CUDAPfS_S_S_ii'
GPGPU-Sim uArch: Shader 6 bind to kernel 1 '_Z22bpnn_layerforward_CUDAPfS_S_S_ii'
GPGPU-Sim uArch: Shader 7 bind to kernel 1 '_Z22bpnn_layerforward_CUDAPfS_S_S_ii'
GPGPU-Sim uArch: Shader 8 bind to kernel 1 '_Z22bpnn_layerforward_CUDAPfS_S_S_ii'
GPGPU-Sim uArch: Shader 9 bind to kernel 1 '_Z22bpnn_layerforward_CUDAPfS_S_S_ii'
GPGPU-Sim uArch: Shader 10 bind to kernel 1 '_Z22bpnn_layerforward_CUDAPfS_S_S_ii'
GPGPU-Sim uArch: Shader 11 bind to kernel 1 '_Z22bpnn_layerforward_CUDAPfS_S_S_ii'
GPGPU-Sim uArch: Shader 12 bind to kernel 1 '_Z22bpnn_layerforward_CUDAPfS_S_S_ii'
GPGPU-Sim uArch: Shader 13 bind to kernel 1 '_Z22bpnn_layerforward_CUDAPfS_S_S_ii'
GPGPU-Sim uArch: Shader 14 bind to kernel 1 '_Z22bpnn_layerforward_CUDAPfS_S_S_ii'
GPGPU-Sim uArch: Shader 15 bind to kernel 1 '_Z22bpnn_layerforward_CUDAPfS_S_S_ii'
GPGPU-Sim uArch: Shader 16 bind to kernel 1 '_Z22bpnn_layerforward_CUDAPfS_S_S_ii'
GPGPU-Sim uArch: Shader 17 bind to kernel 1 '_Z22bpnn_layerforward_CUDAPfS_S_S_ii'
GPGPU-Sim uArch: Shader 18 bind to kernel 1 '_Z22bpnn_layerforward_CUDAPfS_S_S_ii'
GPGPU-Sim uArch: Shader 19 bind to kernel 1 '_Z22bpnn_layerforward_CUDAPfS_S_S_ii'
GPGPU-Sim uArch: Shader 20 bind to kernel 1 '_Z22bpnn_layerforward_CUDAPfS_S_S_ii'
GPGPU-Sim uArch: Shader 21 bind to kernel 1 '_Z22bpnn_layerforward_CUDAPfS_S_S_ii'
GPGPU-Sim uArch: Shader 22 bind to kernel 1 '_Z22bpnn_layerforward_CUDAPfS_S_S_ii'
GPGPU-Sim uArch: Shader 23 bind to kernel 1 '_Z22bpnn_layerforward_CUDAPfS_S_S_ii'
GPGPU-Sim uArch: Shader 24 bind to kernel 1 '_Z22bpnn_layerforward_CUDAPfS_S_S_ii'
GPGPU-Sim uArch: Shader 25 bind to kernel 1 '_Z22bpnn_layerforward_CUDAPfS_S_S_ii'
GPGPU-Sim uArch: Shader 26 bind to kernel 1 '_Z22bpnn_layerforward_CUDAPfS_S_S_ii'
GPGPU-Sim uArch: Shader 27 bind to kernel 1 '_Z22bpnn_layerforward_CUDAPfS_S_S_ii'
GPGPU-Sim uArch: Shader 0 bind to kernel 1 '_Z22bpnn_layerforward_CUDAPfS_S_S_ii'
GPGPU-Sim uArch: Shader 1 bind to kernel 1 '_Z22bpnn_layerforward_CUDAPfS_S_S_ii'
GPGPU-Sim uArch: Shader 2 bind to kernel 1 '_Z22bpnn_layerforward_CUDAPfS_S_S_ii'
GPGPU-Sim uArch: Shader 27 bind to kernel 1 '_Z22bpnn_layerforward_CUDAPfS_S_S_ii'
GPGPU-Sim uArch: Shader 0 bind to kernel 1 '_Z22bpnn_layerforward_CUDAPfS_S_S_ii'
GPGPU-Sim uArch: Shader 1 bind to kernel 1 '_Z22bpnn_layerforward_CUDAPfS_S_S_ii'
GPGPU-Sim uArch: Shader 2 bind to kernel 1 '_Z22bpnn_layerforward_CUDAPfS_S_S_ii'
GPGPU-Sim uArch: Shader 3 bind to kernel 1 '_Z22bpnn_layerforward_CUDAPfS_S_S_ii'
GPGPU-Sim uArch: Shader 4 bind to kernel 1 '_Z22bpnn_layerforward_CUDAPfS_S_S_ii'
GPGPU-Sim uArch: Shader 5 bind to kernel 1 '_Z22bpnn_layerforward_CUDAPfS_S_S_ii'
GPGPU-Sim uArch: Shader 6 bind to kernel 1 '_Z22bpnn_layerforward_CUDAPfS_S_S_ii'
GPGPU-Sim uArch: Shader 7 bind to kernel 1 '_Z22bpnn_layerforward_CUDAPfS_S_S_ii'
GPGPU-Sim uArch: Shader 8 bind to kernel 1 '_Z22bpnn_layerforward_CUDAPfS_S_S_ii'
GPGPU-Sim uArch: Shader 9 bind to kernel 1 '_Z22bpnn_layerforward_CUDAPfS_S_S_ii'
GPGPU-Sim uArch: Shader 10 bind to kernel 1 '_Z22bpnn_layerforward_CUDAPfS_S_S_ii'
GPGPU-Sim uArch: Shader 11 bind to kernel 1 '_Z22bpnn_layerforward_CUDAPfS_S_S_ii'
GPGPU-Sim uArch: Shader 12 bind to kernel 1 '_Z22bpnn_layerforward_CUDAPfS_S_S_ii'
GPGPU-Sim uArch: Shader 13 bind to kernel 1 '_Z22bpnn_layerforward_CUDAPfS_S_S_ii'
GPGPU-Sim uArch: Shader 14 bind to kernel 1 '_Z22bpnn_layerforward_CUDAPfS_S_S_ii'
GPGPU-Sim uArch: Shader 15 bind to kernel 1 '_Z22bpnn_layerforward_CUDAPfS_S_S_ii'
GPGPU-Sim uArch: Shader 16 bind to kernel 1 '_Z22bpnn_layerforward_CUDAPfS_S_S_ii'
GPGPU-Sim uArch: Shader 17 bind to kernel 1 '_Z22bpnn_layerforward_CUDAPfS_S_S_ii'
GPGPU-Sim uArch: Shader 18 bind to kernel 1 '_Z22bpnn_layerforward_CUDAPfS_S_S_ii'
GPGPU-Sim uArch: Shader 19 bind to kernel 1 '_Z22bpnn_layerforward_CUDAPfS_S_S_ii'
GPGPU-Sim uArch: Shader 20 bind to kernel 1 '_Z22bpnn_layerforward_CUDAPfS_S_S_ii'
GPGPU-Sim uArch: Shader 21 bind to kernel 1 '_Z22bpnn_layerforward_CUDAPfS_S_S_ii'
GPGPU-Sim uArch: Shader 22 bind to kernel 1 '_Z22bpnn_layerforward_CUDAPfS_S_S_ii'
GPGPU-Sim uArch: Shader 23 bind to kernel 1 '_Z22bpnn_layerforward_CUDAPfS_S_S_ii'
GPGPU-Sim uArch: Shader 24 bind to kernel 1 '_Z22bpnn_layerforward_CUDAPfS_S_S_ii'
GPGPU-Sim uArch: Shader 25 bind to kernel 1 '_Z22bpnn_layerforward_CUDAPfS_S_S_ii'
GPGPU-Sim uArch: Shader 26 bind to kernel 1 '_Z22bpnn_layerforward_CUDAPfS_S_S_ii'
GPGPU-Sim uArch: Shader 21 bind to kernel 1 '_Z22bpnn_layerforward_CUDAPfS_S_S_ii'
GPGPU-Sim uArch: Shader 22 bind to kernel 1 '_Z22bpnn_layerforward_CUDAPfS_S_S_ii'
GPGPU-Sim uArch: Shader 23 bind to kernel 1 '_Z22bpnn_layerforward_CUDAPfS_S_S_ii'
GPGPU-Sim uArch: Shader 24 bind to kernel 1 '_Z22bpnn_layerforward_CUDAPfS_S_S_ii'
GPGPU-Sim uArch: Shader 25 bind to kernel 1 '_Z22bpnn_layerforward_CUDAPfS_S_S_ii'
GPGPU-Sim uArch: Shader 26 bind to kernel 1 '_Z22bpnn_layerforward_CUDAPfS_S_S_ii'
GPGPU-Sim uArch: Shader 27 bind to kernel 1 '_Z22bpnn_layerforward_CUDAPfS_S_S_ii'
GPGPU-Sim uArch: Shader 0 bind to kernel 1 '_Z22bpnn_layerforward_CUDAPfS_S_S_ii'
GPGPU-Sim uArch: Shader 1 bind to kernel 1 '_Z22bpnn_layerforward_CUDAPfS_S_S_ii'
GPGPU-Sim uArch: Shader 2 bind to kernel 1 '_Z22bpnn_layerforward_CUDAPfS_S_S_ii'
GPGPU-Sim uArch: Shader 3 bind to kernel 1 '_Z22bpnn_layerforward_CUDAPfS_S_S_ii'
GPGPU-Sim uArch: Shader 4 bind to kernel 1 '_Z22bpnn_layerforward_CUDAPfS_S_S_ii'
GPGPU-Sim uArch: Shader 5 bind to kernel 1 '_Z22bpnn_layerforward_CUDAPfS_S_S_ii'
GPGPU-Sim uArch: Shader 6 bind to kernel 1 '_Z22bpnn_layerforward_CUDAPfS_S_S_ii'
GPGPU-Sim uArch: Shader 7 bind to kernel 1 '_Z22bpnn_layerforward_CUDAPfS_S_S_ii'
GPGPU-Sim uArch: Shader 8 bind to kernel 1 '_Z22bpnn_layerforward_CUDAPfS_S_S_ii'
GPGPU-Sim uArch: Shader 9 bind to kernel 1 '_Z22bpnn_layerforward_CUDAPfS_S_S_ii'
GPGPU-Sim uArch: Shader 10 bind to kernel 1 '_Z22bpnn_layerforward_CUDAPfS_S_S_ii'
GPGPU-Sim uArch: Shader 11 bind to kernel 1 '_Z22bpnn_layerforward_CUDAPfS_S_S_ii'
GPGPU-Sim uArch: Shader 12 bind to kernel 1 '_Z22bpnn_layerforward_CUDAPfS_S_S_ii'
GPGPU-Sim uArch: Shader 13 bind to kernel 1 '_Z22bpnn_layerforward_CUDAPfS_S_S_ii'
GPGPU-Sim uArch: Shader 14 bind to kernel 1 '_Z22bpnn_layerforward_CUDAPfS_S_S_ii'
GPGPU-Sim uArch: Shader 15 bind to kernel 1 '_Z22bpnn_layerforward_CUDAPfS_S_S_ii'
GPGPU-Sim uArch: Shader 16 bind to kernel 1 '_Z22bpnn_layerforward_CUDAPfS_S_S_ii'
GPGPU-Sim uArch: Shader 17 bind to kernel 1 '_Z22bpnn_layerforward_CUDAPfS_S_S_ii'
GPGPU-Sim uArch: Shader 18 bind to kernel 1 '_Z22bpnn_layerforward_CUDAPfS_S_S_ii'
GPGPU-Sim uArch: Shader 19 bind to kernel 1 '_Z22bpnn_layerforward_CUDAPfS_S_S_ii'
GPGPU-Sim uArch: Shader 20 bind to kernel 1 '_Z22bpnn_layerforward_CUDAPfS_S_S_ii'
GPGPU-Sim uArch: Shader 21 bind to kernel 1 '_Z22bpnn_layerforward_CUDAPfS_S_S_ii'
GPGPU-Sim uArch: Shader 22 bind to kernel 1 '_Z22bpnn_layerforward_CUDAPfS_S_S_ii'
GPGPU-Sim uArch: Shader 19 bind to kernel 1 '_Z22bpnn_layerforward_CUDAPfS_S_S_ii'
GPGPU-Sim uArch: Shader 20 bind to kernel 1 '_Z22bpnn_layerforward_CUDAPfS_S_S_ii'
GPGPU-Sim uArch: Shader 21 bind to kernel 1 '_Z22bpnn_layerforward_CUDAPfS_S_S_ii'
GPGPU-Sim uArch: Shader 22 bind to kernel 1 '_Z22bpnn_layerforward_CUDAPfS_S_S_ii'
GPGPU-Sim uArch: Shader 23 bind to kernel 1 '_Z22bpnn_layerforward_CUDAPfS_S_S_ii'
GPGPU-Sim uArch: Shader 24 bind to kernel 1 '_Z22bpnn_layerforward_CUDAPfS_S_S_ii'
GPGPU-Sim uArch: Shader 25 bind to kernel 1 '_Z22bpnn_layerforward_CUDAPfS_S_S_ii'
GPGPU-Sim uArch: Shader 26 bind to kernel 1 '_Z22bpnn_layerforward_CUDAPfS_S_S_ii'
GPGPU-Sim uArch: Shader 27 bind to kernel 1 '_Z22bpnn_layerforward_CUDAPfS_S_S_ii'
GPGPU-Sim uArch: Shader 0 bind to kernel 1 '_Z22bpnn_layerforward_CUDAPfS_S_S_ii'
GPGPU-Sim uArch: Shader 1 bind to kernel 1 '_Z22bpnn_layerforward_CUDAPfS_S_S_ii'
GPGPU-Sim uArch: Shader 2 bind to kernel 1 '_Z22bpnn_layerforward_CUDAPfS_S_S_ii'
GPGPU-Sim uArch: Shader 3 bind to kernel 1 '_Z22bpnn_layerforward_CUDAPfS_S_S_ii'
GPGPU-Sim uArch: Shader 4 bind to kernel 1 '_Z22bpnn_layerforward_CUDAPfS_S_S_ii'
GPGPU-Sim uArch: Shader 5 bind to kernel 1 '_Z22bpnn_layerforward_CUDAPfS_S_S_ii'
GPGPU-Sim uArch: Shader 6 bind to kernel 1 '_Z22bpnn_layerforward_CUDAPfS_S_S_ii'
GPGPU-Sim uArch: Shader 7 bind to kernel 1 '_Z22bpnn_layerforward_CUDAPfS_S_S_ii'
GPGPU-Sim uArch: Shader 8 bind to kernel 1 '_Z22bpnn_layerforward_CUDAPfS_S_S_ii'
GPGPU-Sim uArch: Shader 9 bind to kernel 1 '_Z22bpnn_layerforward_CUDAPfS_S_S_ii'
GPGPU-Sim uArch: Shader 10 bind to kernel 1 '_Z22bpnn_layerforward_CUDAPfS_S_S_ii'
GPGPU-Sim uArch: Shader 11 bind to kernel 1 '_Z22bpnn_layerforward_CUDAPfS_S_S_ii'
GPGPU-Sim uArch: Shader 12 bind to kernel 1 '_Z22bpnn_layerforward_CUDAPfS_S_S_ii'
GPGPU-Sim uArch: Shader 13 bind to kernel 1 '_Z22bpnn_layerforward_CUDAPfS_S_S_ii'
GPGPU-Sim uArch: Shader 14 bind to kernel 1 '_Z22bpnn_layerforward_CUDAPfS_S_S_ii'
GPGPU-Sim uArch: Shader 15 bind to kernel 1 '_Z22bpnn_layerforward_CUDAPfS_S_S_ii'
GPGPU-Sim uArch: Shader 16 bind to kernel 1 '_Z22bpnn_layerforward_CUDAPfS_S_S_ii'
GPGPU-Sim uArch: Shader 17 bind to kernel 1 '_Z22bpnn_layerforward_CUDAPfS_S_S_ii'
GPGPU-Sim uArch: Shader 18 bind to kernel 1 '_Z22bpnn_layerforward_CUDAPfS_S_S_ii'
GPGPU-Sim uArch: Shader 13 bind to kernel 1 '_Z22bpnn_layerforward_CUDAPfS_S_S_ii'
GPGPU-Sim uArch: Shader 14 bind to kernel 1 '_Z22bpnn_layerforward_CUDAPfS_S_S_ii'
GPGPU-Sim uArch: Shader 15 bind to kernel 1 '_Z22bpnn_layerforward_CUDAPfS_S_S_ii'
GPGPU-Sim uArch: Shader 16 bind to kernel 1 '_Z22bpnn_layerforward_CUDAPfS_S_S_ii'
GPGPU-Sim uArch: Shader 17 bind to kernel 1 '_Z22bpnn_layerforward_CUDAPfS_S_S_ii'
GPGPU-Sim uArch: Shader 18 bind to kernel 1 '_Z22bpnn_layerforward_CUDAPfS_S_S_ii'
GPGPU-Sim uArch: Shader 19 bind to kernel 1 '_Z22bpnn_layerforward_CUDAPfS_S_S_ii'
GPGPU-Sim uArch: Shader 20 bind to kernel 1 '_Z22bpnn_layerforward_CUDAPfS_S_S_ii'
GPGPU-Sim uArch: Shader 21 bind to kernel 1 '_Z22bpnn_layerforward_CUDAPfS_S_S_ii'
GPGPU-Sim uArch: Shader 22 bind to kernel 1 '_Z22bpnn_layerforward_CUDAPfS_S_S_ii'
GPGPU-Sim uArch: Shader 23 bind to kernel 1 '_Z22bpnn_layerforward_CUDAPfS_S_S_ii'
GPGPU-Sim uArch: Shader 24 bind to kernel 1 '_Z22bpnn_layerforward_CUDAPfS_S_S_ii'
GPGPU-Sim uArch: Shader 25 bind to kernel 1 '_Z22bpnn_layerforward_CUDAPfS_S_S_ii'
GPGPU-Sim uArch: Shader 26 bind to kernel 1 '_Z22bpnn_layerforward_CUDAPfS_S_S_ii'
GPGPU-Sim uArch: Shader 27 bind to kernel 1 '_Z22bpnn_layerforward_CUDAPfS_S_S_ii'
GPGPU-Sim uArch: Shader 0 bind to kernel 1 '_Z22bpnn_layerforward_CUDAPfS_S_S_ii'
GPGPU-Sim uArch: Shader 1 bind to kernel 1 '_Z22bpnn_layerforward_CUDAPfS_S_S_ii'
GPGPU-Sim uArch: Shader 2 bind to kernel 1 '_Z22bpnn_layerforward_CUDAPfS_S_S_ii'
GPGPU-Sim uArch: Shader 3 bind to kernel 1 '_Z22bpnn_layerforward_CUDAPfS_S_S_ii'
GPGPU-Sim uArch: Shader 4 bind to kernel 1 '_Z22bpnn_layerforward_CUDAPfS_S_S_ii'
GPGPU-Sim uArch: Shader 5 bind to kernel 1 '_Z22bpnn_layerforward_CUDAPfS_S_S_ii'
GPGPU-Sim uArch: Shader 6 bind to kernel 1 '_Z22bpnn_layerforward_CUDAPfS_S_S_ii'
GPGPU-Sim uArch: Shader 7 bind to kernel 1 '_Z22bpnn_layerforward_CUDAPfS_S_S_ii'
GPGPU-Sim uArch: Shader 8 bind to kernel 1 '_Z22bpnn_layerforward_CUDAPfS_S_S_ii'
GPGPU-Sim uArch: Shader 9 bind to kernel 1 '_Z22bpnn_layerforward_CUDAPfS_S_S_ii'
GPGPU-Sim uArch: Shader 10 bind to kernel 1 '_Z22bpnn_layerforward_CUDAPfS_S_S_ii'
GPGPU-Sim uArch: Shader 11 bind to kernel 1 '_Z22bpnn_layerforward_CUDAPfS_S_S_ii'
GPGPU-Sim uArch: Shader 12 bind to kernel 1 '_Z22bpnn_layerforward_CUDAPfS_S_S_ii'
GPGPU-Sim uArch: Shader 13 bind to kernel 1 '_Z22bpnn_layerforward_CUDAPfS_S_S_ii'
GPGPU-Sim uArch: Shader 25 bind to kernel 1 '_Z22bpnn_layerforward_CUDAPfS_S_S_ii'
GPGPU-Sim uArch: Shader 26 bind to kernel 1 '_Z22bpnn_layerforward_CUDAPfS_S_S_ii'
GPGPU-Sim uArch: Shader 3 bind to kernel 1 '_Z22bpnn_layerforward_CUDAPfS_S_S_ii'
GPGPU-Sim uArch: Shader 4 bind to kernel 1 '_Z22bpnn_layerforward_CUDAPfS_S_S_ii'
GPGPU-Sim uArch: Shader 9 bind to kernel 1 '_Z22bpnn_layerforward_CUDAPfS_S_S_ii'
GPGPU-Sim uArch: Shader 10 bind to kernel 1 '_Z22bpnn_layerforward_CUDAPfS_S_S_ii'
GPGPU-Sim uArch: Shader 23 bind to kernel 1 '_Z22bpnn_layerforward_CUDAPfS_S_S_ii'
GPGPU-Sim uArch: Shader 24 bind to kernel 1 '_Z22bpnn_layerforward_CUDAPfS_S_S_ii'
GPGPU-Sim uArch: Shader 2 bind to kernel 1 '_Z22bpnn_layerforward_CUDAPfS_S_S_ii'
GPGPU-Sim uArch: Shader 7 bind to kernel 1 '_Z22bpnn_layerforward_CUDAPfS_S_S_ii'
GPGPU-Sim uArch: Shader 8 bind to kernel 1 '_Z22bpnn_layerforward_CUDAPfS_S_S_ii'
GPGPU-Sim uArch: Shader 8 bind to kernel 1 '_Z22bpnn_layerforward_CUDAPfS_S_S_ii'
GPGPU-Sim uArch: Shader 23 bind to kernel 1 '_Z22bpnn_layerforward_CUDAPfS_S_S_ii'
GPGPU-Sim uArch: Shader 24 bind to kernel 1 '_Z22bpnn_layerforward_CUDAPfS_S_S_ii'
Destroy streams for kernel 1: size 0
kernel_name = _Z22bpnn_layerforward_CUDAPfS_S_S_ii 
kernel_launch_uid = 1 
gpu_sim_cycle = 1656744
gpu_sim_insn = 224892096
gpu_ipc =     135.7434
gpu_tot_sim_cycle = 1878894
gpu_tot_sim_insn = 224892096
gpu_tot_ipc =     119.6939
gpu_tot_issued_cta = 8191
max_total_param_size = 0
gpu_stall_dramfull = 115964
gpu_stall_icnt2sh    = 274327
partiton_reqs_in_parallel = 36332404
partiton_reqs_in_parallel_total    = 0
partiton_level_parallism =      21.9300
partiton_level_parallism_total  =      19.3371
partiton_reqs_in_parallel_util = 36332404
partiton_reqs_in_parallel_util_total    = 0
gpu_sim_cycle_parition_util = 1652794
gpu_tot_sim_cycle_parition_util    = 0
partiton_level_parallism_util =      21.9824
partiton_level_parallism_util_total  =      21.9824
partiton_replys_in_parallel = 397459
partiton_replys_in_parallel_total    = 0
L2_BW  =      22.7390 GB/Sec
L2_BW_total  =      20.0505 GB/Sec
gpu_total_sim_rate=110512

========= Core cache stats =========
L1I_cache:
	L1I_total_cache_accesses = 4677061
	L1I_total_cache_misses = 3489
	L1I_total_cache_miss_rate = 0.0007
	L1I_total_cache_pending_hits = 0
	L1I_total_cache_reservation_fails = 6846
L1D_cache:
	L1D_cache_core[0]: Access = 0, Miss = 0, Miss_rate = -nan, Pending_hits = 0, Reservation_fails = 0
	L1D_cache_core[1]: Access = 0, Miss = 0, Miss_rate = -nan, Pending_hits = 0, Reservation_fails = 0
	L1D_cache_core[2]: Access = 0, Miss = 0, Miss_rate = -nan, Pending_hits = 0, Reservation_fails = 0
	L1D_cache_core[3]: Access = 0, Miss = 0, Miss_rate = -nan, Pending_hits = 0, Reservation_fails = 0
	L1D_cache_core[4]: Access = 0, Miss = 0, Miss_rate = -nan, Pending_hits = 0, Reservation_fails = 0
	L1D_cache_core[5]: Access = 0, Miss = 0, Miss_rate = -nan, Pending_hits = 0, Reservation_fails = 0
	L1D_cache_core[6]: Access = 0, Miss = 0, Miss_rate = -nan, Pending_hits = 0, Reservation_fails = 0
	L1D_cache_core[7]: Access = 0, Miss = 0, Miss_rate = -nan, Pending_hits = 0, Reservation_fails = 0
	L1D_cache_core[8]: Access = 0, Miss = 0, Miss_rate = -nan, Pending_hits = 0, Reservation_fails = 0
	L1D_cache_core[9]: Access = 0, Miss = 0, Miss_rate = -nan, Pending_hits = 0, Reservation_fails = 0
	L1D_cache_core[10]: Access = 0, Miss = 0, Miss_rate = -nan, Pending_hits = 0, Reservation_fails = 0
	L1D_cache_core[11]: Access = 0, Miss = 0, Miss_rate = -nan, Pending_hits = 0, Reservation_fails = 0
	L1D_cache_core[12]: Access = 0, Miss = 0, Miss_rate = -nan, Pending_hits = 0, Reservation_fails = 0
	L1D_cache_core[13]: Access = 0, Miss = 0, Miss_rate = -nan, Pending_hits = 0, Reservation_fails = 0
	L1D_cache_core[14]: Access = 0, Miss = 0, Miss_rate = -nan, Pending_hits = 0, Reservation_fails = 0
	L1D_cache_core[15]: Access = 0, Miss = 0, Miss_rate = -nan, Pending_hits = 0, Reservation_fails = 0
	L1D_cache_core[16]: Access = 0, Miss = 0, Miss_rate = -nan, Pending_hits = 0, Reservation_fails = 0
	L1D_cache_core[17]: Access = 0, Miss = 0, Miss_rate = -nan, Pending_hits = 0, Reservation_fails = 0
	L1D_cache_core[18]: Access = 0, Miss = 0, Miss_rate = -nan, Pending_hits = 0, Reservation_fails = 0
	L1D_cache_core[19]: Access = 0, Miss = 0, Miss_rate = -nan, Pending_hits = 0, Reservation_fails = 0
	L1D_cache_core[20]: Access = 0, Miss = 0, Miss_rate = -nan, Pending_hits = 0, Reservation_fails = 0
	L1D_cache_core[21]: Access = 0, Miss = 0, Miss_rate = -nan, Pending_hits = 0, Reservation_fails = 0
	L1D_cache_core[22]: Access = 0, Miss = 0, Miss_rate = -nan, Pending_hits = 0, Reservation_fails = 0
	L1D_cache_core[23]: Access = 0, Miss = 0, Miss_rate = -nan, Pending_hits = 0, Reservation_fails = 0
	L1D_cache_core[24]: Access = 0, Miss = 0, Miss_rate = -nan, Pending_hits = 0, Reservation_fails = 0
	L1D_cache_core[25]: Access = 0, Miss = 0, Miss_rate = -nan, Pending_hits = 0, Reservation_fails = 0
	L1D_cache_core[26]: Access = 0, Miss = 0, Miss_rate = -nan, Pending_hits = 0, Reservation_fails = 0
	L1D_cache_core[27]: Access = 0, Miss = 0, Miss_rate = -nan, Pending_hits = 0, Reservation_fails = 0
	L1D_total_cache_accesses = 0
	L1D_total_cache_misses = 0
	L1D_total_cache_pending_hits = 0
	L1D_total_cache_reservation_fails = 0
	L1D_cache_data_port_util = 0.000
	L1D_cache_fill_port_util = 0.000
L1C_cache:
	L1C_total_cache_accesses = 262112
	L1C_total_cache_misses = 1792
	L1C_total_cache_miss_rate = 0.0068
	L1C_total_cache_pending_hits = 0
	L1C_total_cache_reservation_fails = 4886
L1T_cache:
	L1T_total_cache_accesses = 0
	L1T_total_cache_misses = 0
	L1T_total_cache_pending_hits = 0
	L1T_total_cache_reservation_fails = 0

Total_core_cache_stats:
	Total_core_cache_stats_breakdown[GLOBAL_ACC_R][HIT] = 0
	Total_core_cache_stats_breakdown[GLOBAL_ACC_R][HIT_RESERVED] = 0
	Total_core_cache_stats_breakdown[GLOBAL_ACC_R][MISS] = 0
	Total_core_cache_stats_breakdown[GLOBAL_ACC_R][RESERVATION_FAIL] = 0
	Total_core_cache_stats_breakdown[LOCAL_ACC_R][HIT] = 0
	Total_core_cache_stats_breakdown[LOCAL_ACC_R][HIT_RESERVED] = 0
	Total_core_cache_stats_breakdown[LOCAL_ACC_R][MISS] = 0
	Total_core_cache_stats_breakdown[LOCAL_ACC_R][RESERVATION_FAIL] = 0
	Total_core_cache_stats_breakdown[CONST_ACC_R][HIT] = 260320
	Total_core_cache_stats_breakdown[CONST_ACC_R][HIT_RESERVED] = 0
	Total_core_cache_stats_breakdown[CONST_ACC_R][MISS] = 1792
	Total_core_cache_stats_breakdown[CONST_ACC_R][RESERVATION_FAIL] = 4886
	Total_core_cache_stats_breakdown[TEXTURE_ACC_R][HIT] = 0
	Total_core_cache_stats_breakdown[TEXTURE_ACC_R][HIT_RESERVED] = 0
	Total_core_cache_stats_breakdown[TEXTURE_ACC_R][MISS] = 0
	Total_core_cache_stats_breakdown[TEXTURE_ACC_R][RESERVATION_FAIL] = 0
	Total_core_cache_stats_breakdown[GLOBAL_ACC_W][HIT] = 0
	Total_core_cache_stats_breakdown[GLOBAL_ACC_W][HIT_RESERVED] = 0
	Total_core_cache_stats_breakdown[GLOBAL_ACC_W][MISS] = 0
	Total_core_cache_stats_breakdown[GLOBAL_ACC_W][RESERVATION_FAIL] = 0
	Total_core_cache_stats_breakdown[LOCAL_ACC_W][HIT] = 0
	Total_core_cache_stats_breakdown[LOCAL_ACC_W][HIT_RESERVED] = 0
	Total_core_cache_stats_breakdown[LOCAL_ACC_W][MISS] = 0
	Total_core_cache_stats_breakdown[LOCAL_ACC_W][RESERVATION_FAIL] = 0
	Total_core_cache_stats_breakdown[L1_WRBK_ACC][HIT] = 0
	Total_core_cache_stats_breakdown[L1_WRBK_ACC][HIT_RESERVED] = 0
	Total_core_cache_stats_breakdown[L1_WRBK_ACC][MISS] = 0
	Total_core_cache_stats_breakdown[L1_WRBK_ACC][RESERVATION_FAIL] = 0
	Total_core_cache_stats_breakdown[L2_WRBK_ACC][HIT] = 0
	Total_core_cache_stats_breakdown[L2_WRBK_ACC][HIT_RESERVED] = 0
	Total_core_cache_stats_breakdown[L2_WRBK_ACC][MISS] = 0
	Total_core_cache_stats_breakdown[L2_WRBK_ACC][RESERVATION_FAIL] = 0
	Total_core_cache_stats_breakdown[INST_ACC_R][HIT] = 4673572
	Total_core_cache_stats_breakdown[INST_ACC_R][HIT_RESERVED] = 0
	Total_core_cache_stats_breakdown[INST_ACC_R][MISS] = 3489
	Total_core_cache_stats_breakdown[INST_ACC_R][RESERVATION_FAIL] = 6846
	Total_core_cache_stats_breakdown[L1_WR_ALLOC_R][HIT] = 0
	Total_core_cache_stats_breakdown[L1_WR_ALLOC_R][HIT_RESERVED] = 0
	Total_core_cache_stats_breakdown[L1_WR_ALLOC_R][MISS] = 0
	Total_core_cache_stats_breakdown[L1_WR_ALLOC_R][RESERVATION_FAIL] = 0
	Total_core_cache_stats_breakdown[L2_WR_ALLOC_R][HIT] = 0
	Total_core_cache_stats_breakdown[L2_WR_ALLOC_R][HIT_RESERVED] = 0
	Total_core_cache_stats_breakdown[L2_WR_ALLOC_R][MISS] = 0
	Total_core_cache_stats_breakdown[L2_WR_ALLOC_R][RESERVATION_FAIL] = 0
	Total_core_cache_stats_breakdown[CONST_ACC_R][TOTAL_ACCESS] = 262112
	Total_core_cache_stats_breakdown[INST_ACC_R][TOTAL_ACCESS] = 4677061
Shader 0 warp_id issue ditsribution:
warp_id:
0, 1, 2, 3, 4, 5, 6, 7, 8, 9, 10, 11, 12, 13, 14, 15, 16, 17, 18, 19, 20, 21, 22, 23, 24, 25, 26, 27, 28, 29, 30, 31, 32, 33, 34, 35, 36, 37, 38, 39, 40, 41, 42, 43, 44, 45, 46, 47, 48, 49, 50, 51, 52, 53, 54, 55, 56, 57, 58, 59, 60, 61, 62, 63, 
distro:
7528, 5986, 6480, 5992, 7057, 5990, 6538, 6031, 7531, 5980, 6484, 5986, 7060, 5996, 6536, 6034, 7354, 5850, 6323, 5853, 6887, 5859, 6383, 5891, 7355, 5854, 6320, 5857, 6883, 5858, 6378, 5892, 7355, 5843, 6333, 5856, 6895, 5857, 6390, 5895, 5747, 4564, 4941, 4559, 5379, 4578, 4985, 4599, 5206, 4144, 4482, 4143, 4877, 4151, 4522, 4179, 4488, 3567, 3866, 3570, 4198, 3572, 3901, 3594, 
gpgpu_n_tot_thrd_icount = 284391520
gpgpu_n_tot_w_icount = 8887235
gpgpu_n_stall_shd_mem = 312113
gpgpu_n_mem_read_local = 0
gpgpu_n_mem_write_local = 0
gpgpu_n_mem_read_global = 200679
gpgpu_n_mem_write_global = 196584
gpgpu_n_mem_texture = 0
gpgpu_n_mem_const = 28
gpgpu_n_load_insn  = 2227952
gpgpu_n_store_insn = 2227952
gpgpu_n_shmem_insn = 16644112
gpgpu_n_tex_insn = 0
gpgpu_n_const_mem_insn = 0
gpgpu_n_param_mem_insn = 8387584
gpgpu_n_shmem_bkconflict = 0
gpgpu_n_cache_bkconflict = 0
gpgpu_n_intrawarp_mshr_merge = 0
gpgpu_n_cmem_portconflict = 4886
gpgpu_stall_shd_mem[c_mem][bk_conf] = 4886
gpgpu_stall_shd_mem[c_mem][mshr_rc] = 0
gpgpu_stall_shd_mem[c_mem][icnt_rc] = 0
gpgpu_stall_shd_mem[c_mem][data_port_stall] = 0
gpgpu_stall_shd_mem[t_mem][mshr_rc] = 0
gpgpu_stall_shd_mem[t_mem][icnt_rc] = 0
gpgpu_stall_shd_mem[t_mem][data_port_stall] = 0
gpgpu_stall_shd_mem[s_mem][bk_conf] = 0
gpgpu_stall_shd_mem[gl_mem][bk_conf] = 0
gpgpu_stall_shd_mem[gl_mem][coal_stall] = 297480
gpgpu_stall_shd_mem[gl_mem][data_port_stall] = 0
gpgpu_stall_shd_mem[g_mem_ld][mshr_rc] = 0
gpgpu_stall_shd_mem[g_mem_ld][icnt_rc] = 9747
gpgpu_stall_shd_mem[g_mem_ld][wb_icnt_rc] = 0
gpgpu_stall_shd_mem[g_mem_ld][wb_rsrv_fail] = 0
gpgpu_stall_shd_mem[g_mem_st][mshr_rc] = 0
gpgpu_stall_shd_mem[g_mem_st][icnt_rc] = 0
gpgpu_stall_shd_mem[g_mem_st][wb_icnt_rc] = 0
gpgpu_stall_shd_mem[g_mem_st][wb_rsrv_fail] = 0
gpgpu_stall_shd_mem[l_mem_ld][mshr_rc] = 0
gpgpu_stall_shd_mem[l_mem_ld][icnt_rc] = 0
gpgpu_stall_shd_mem[l_mem_ld][wb_icnt_rc] = 0
gpgpu_stall_shd_mem[l_mem_ld][wb_rsrv_fail] = 0
gpgpu_stall_shd_mem[l_mem_st][mshr_rc] = 0
gpgpu_stall_shd_mem[l_mem_st][icnt_rc] = 0
gpgpu_stall_shd_mem[l_mem_ld][wb_icnt_rc] = 0
gpgpu_stall_shd_mem[l_mem_ld][wb_rsrv_fail] = 0
gpu_reg_bank_conflict_stalls = 0
Warp Occupancy Distribution:
Stall:352454	W0_Idle:7494410	W0_Scoreboard:77219432	W1:0	W2:1048448	W3:0	W4:0	W5:0	W6:0	W7:0	W8:0	W9:0	W10:0	W11:0	W12:0	W13:0	W14:0	W15:0	W16:1351515	W17:0	W18:0	W19:0	W20:0	W21:0	W22:0	W23:0	W24:0	W25:0	W26:0	W27:0	W28:0	W29:0	W30:0	W31:0	W32:6487272
traffic_breakdown_coretomem[CONST_ACC_R] = 224 {8:28,}
traffic_breakdown_coretomem[GLOBAL_ACC_R] = 1605432 {8:200679,}
traffic_breakdown_coretomem[GLOBAL_ACC_W] = 15202464 {40:98293,72:32763,136:65528,}
traffic_breakdown_coretomem[INST_ACC_R] = 1344 {8:168,}
traffic_breakdown_memtocore[CONST_ACC_R] = 2016 {72:28,}
traffic_breakdown_memtocore[GLOBAL_ACC_R] = 16021592 {40:90101,72:40954,136:69624,}
traffic_breakdown_memtocore[GLOBAL_ACC_W] = 1572672 {8:196584,}
traffic_breakdown_memtocore[INST_ACC_R] = 22848 {136:168,}
maxmrqlatency = 372 
maxdqlatency = 0 
maxmflatency = 43751 
averagemflatency = 7130 
max_icnt2mem_latency = 43389 
max_icnt2sh_latency = 1878893 
mrq_lat_table:37716 	3639 	7325 	21995 	33924 	27798 	25203 	25043 	5923 	0 	0 	0 	0 	0 	0 	0 	0 	0 	0 	0 	0 	0 	0 	0 	0 	0 	0 	0 	0 	0 	0 	0 	
dq_lat_table:0 	0 	0 	0 	0 	0 	0 	0 	0 	0 	0 	0 	0 	0 	0 	0 	0 	0 	0 	0 	0 	0 	0 	0 	0 	0 	0 	0 	0 	0 	0 	0 	
mf_lat_table:0 	0 	0 	0 	0 	0 	0 	173524 	88617 	498 	896 	7749 	2649 	39659 	72529 	11170 	0 	0 	0 	0 	0 	0 	0 	0 	0 	0 	0 	0 	0 	0 	0 	0 	
icnt2mem_lat_table:0 	0 	66655 	110103 	17202 	154 	66306 	2387 	0 	40 	856 	9045 	1353 	40052 	72712 	10594 	0 	0 	0 	0 	0 	0 	0 	0 	
icnt2sh_lat_table:0 	0 	53204 	109282 	37356 	865 	0 	0 	0 	0 	0 	0 	0 	0 	0 	0 	0 	2160 	31176 	63048 	100200 	0 	0 	0 	
mf_lat_pw_table:0 	0 	0 	0 	0 	0 	0 	462 	187 	1 	2 	45 	16 	116 	187 	42 	0 	0 	0 	0 	0 	0 	0 	0 	0 	0 	0 	0 	0 	0 	0 	0 	
maximum concurrent accesses to same row:
dram[0]:       102       102        94       102        43        51        60        68        68        60        51        43        85        85        89       102 
dram[1]:       102       102       102        94        43        51        60        60        68        60        34        34        85        85       102       102 
dram[2]:       102       102       102       102        51        51        60        68        68        60        34        34        85        85        94        94 
dram[3]:       102       102       102        97        51        60        68        60        60        60        34        34        85        85        86        94 
dram[4]:       102       102       102       102        60        68        52        52        60        52        51        51        85        85        95        94 
dram[5]:       102       102       102        86        51        51        52        60        60        62        51        43        85        85        82        85 
dram[6]:       102       102       102        95        51        51        52        52        68        51        51        51        85        85        85        85 
dram[7]:       102       102        94       102        51        51        51        51        68        52        51        43        85        85        77        85 
dram[8]:        85        85        94       102        43        43        68        52        68        60        43        51       102       102        85        84 
dram[9]:        85        77       102        86        35        39        51        51        51        54        51        51        85        85        77        77 
dram[10]:        85        85        77        80        51        51        68        68        60        68        43        43        85        85        75        85 
maximum service time to same row:
dram[0]:     77601     77548     90290     90293     75078     75079     79362     79361     76156     76157     79592     79800     90290     90291     86137     86136 
dram[1]:     77612     77559     90292     90287     75078     75080     79359     79362     76155     76155     79596     79814     90290     90294     86137     86136 
dram[2]:     77565     77522     90290     90290     75077     75077     79361     79362     76158     76157     79586     79816     90293     90293     86146     86147 
dram[3]:     77582     77530     90292     90292     75082     75081     79362     79361     76154     76158     79625     79800     90291     90291     86141     86142 
dram[4]:     77585     77539     90292     90292     75079     75076     79359     79362     76160     76160     79596     79800     90290     90289     86136     86144 
dram[5]:     77607     77544     90294     90289     75084     75084     79361     79361     76159     76156     79616     79828     90287     90286     86140     86141 
dram[6]:     77596     77551     90286     90286     75083     75081     79362     79361     76157     76157     79599     79800     90284     90284     86143     86138 
dram[7]:     77588     77538     90286     90285     75079     75077     79358     79362     76159     76154     79853     79800     90283     90282     86133     86140 
dram[8]:     77606     77548     90292     90290     75077     75077     79361     79362     76158     76157     79602     79800     90289     90287     86139     86145 
dram[9]:     77614     77559     90287     90291     75078     75078     79361     79361     76157     76158     79634     79835     90290     90289     86147     86148 
dram[10]:     77620     77560     90290     90291     75087     75081     79362     79361     76154     76159     79632     79788     90291     90287     86141     86140 
average row accesses per activate:
dram[0]:  9.183207  9.792000  8.451389  8.948905  7.821705  8.096000  7.696000  8.438597  8.162394  8.230769  6.459459  6.828571  8.585366  9.269566  8.737226  9.212121 
dram[1]:  9.434109  9.632812  9.000000  8.868613  7.428571  7.960318  7.696000  8.353448  8.341881  8.162394  6.648276  6.884892  9.100841  9.179487  9.280303  9.382812 
dram[2]:  9.098485  9.645669  8.541667  8.724638  7.603054  8.154471  7.457365  8.084034  8.142858  7.841667  6.935252  7.088235  8.803279  9.310345  9.114504  9.093023 
dram[3]:  9.074627  9.625000  8.394366  8.531468  7.284671  7.610687  7.574803  8.016666  7.680000  8.162394  6.687500  6.503401  8.480000  8.966387  8.632353  9.114504 
dram[4]:  9.229008  9.343512  8.091503  8.730496  7.492424  8.024000  6.867647  7.645161  7.776859  8.059322  6.416107  6.830986  8.524194  9.265487  9.305344  9.325582 
dram[5]:  9.434109  9.685484  7.948052  8.244898  7.544776  7.911290  7.372093  7.764228  8.275862  8.544642  6.459459  6.404109  9.000000  8.983051  9.075188 10.226891 
dram[6]:  8.970370  9.426356  8.052631  7.980133  7.277372  7.568182  7.234848  7.584000  8.084034  8.663636  6.593103  6.877698  8.263566  9.153846  9.531746  9.271317 
dram[7]:  9.292308  9.674603  7.556962  8.335616  7.321168  7.623077  7.403101  7.950413  8.304348  8.540541  6.654930  6.891304  9.182609  9.681818  8.471014  9.527559 
dram[8]:  9.515625  9.438461  8.106667  8.595745  7.485294  7.625954  7.821138  8.526786  8.666667  8.754545  6.356164  6.828571  9.873874  9.660714  9.167939  9.283464 
dram[9]:  8.911111  9.251908  8.277027  8.413794  7.500000  7.757812  8.066115  8.513274  8.792792  8.636364  6.412162  6.732394  9.042017  9.853211  9.398438  9.715447 
dram[10]:  8.820144  9.037037  8.087248  8.758865  7.270677  7.484615  7.878049  8.451327  8.365217  8.522124  6.408163  6.541667  9.000000  9.491228  9.160305  8.977273 
average row locality = 188566/22786 = 8.275520
number of total memory accesses made:
dram[0]:         0         0         0         0         0         0         0         0         0         0         0         0         0         0         0         0 
dram[1]:         0         0         0         0         0         0         0         0         0         0         0         0         0         0         0         0 
dram[2]:         0         0         0         0         0         0         0         0         0         0         0         0         0         0         0         0 
dram[3]:         0         0         0         0         0         0         0         0         0         0         0         0         0         0         0         0 
dram[4]:         0         0         0         0         0         0         0         0         0         0         0         0         0         0         0         0 
dram[5]:         0         0         0         0         0         0         0         0         0         0         0         0         0         0         0         0 
dram[6]:         0         0         0         0         0         0         0         0         0         0         0         0         0         0         0         0 
dram[7]:         0         0         0         0         0         0         0         0         0         0         0         0         0         0         0         0 
dram[8]:         0         0         0         0         0         0         0         0         0         0         0         0         0         0         0         0 
dram[9]:         0         0         0         0         0         0         0         0         0         0         0         0         0         0         0         0 
dram[10]:         0         0         0         0         0         0         0         0         0         0         0         0         0         0         0         0 
total accesses: 0
min_bank_accesses = 0!
min_chip_accesses = 0!
number of total read accesses:
dram[0]:       453       452       456       456       435       435       432       432       432       432       434       434       448       448       448       448 
dram[1]:       452       452       456       456       435       435       432       432       432       432       435       435       448       448       448       448 
dram[2]:       452       452       456       456       435       435       432       432       432       432       435       435       448       448       448       448 
dram[3]:       452       452       455       455       435       435       432       432       432       432       435       435       448       448       448       448 
dram[4]:       452       452       455       455       435       435       432       432       432       432       435       435       448       447       449       449 
dram[5]:       452       452       455       455       435       435       432       432       432       432       435       435       447       447       449       449 
dram[6]:       452       452       455       455       435       435       432       432       432       432       435       435       447       447       449       449 
dram[7]:       453       453       455       455       435       435       432       432       432       432       435       435       447       447       448       448 
dram[8]:       453       453       455       455       435       435       432       432       432       432       435       435       448       448       448       448 
dram[9]:       453       453       455       455       435       435       432       432       432       432       435       435       448       448       448       448 
dram[10]:       453       453       455       455       434       434       432       432       432       432       435       435       448       448       448       448 
total reads: 77824
bank skew: 456/432 = 1.06
chip skew: 7076/7074 = 1.00
number of total write accesses:
dram[0]:       750       772       761       770       574       577       530       530       523       531       522       522       608       618       749       768 
dram[1]:       765       781       786       759       553       568       530       537       544       523       529       522       635       626       777       753 
dram[2]:       749       773       774       748       561       568       530       530       537       509       529       529       626       632       746       725 
dram[3]:       764       780       737       765       563       562       530       530       528       523       528       521       612       619       726       746 
dram[4]:       757       772       783       776       554       568       502       516       509       519       521       535       609       600       770       754 
dram[5]:       765       749       769       757       576       546       519       523       528       525       521       500       633       613       758       768 
dram[6]:       759       764       769       750       562       564       523       516       530       521       521       521       619       624       752       747 
dram[7]:       755       766       739       762       568       556       523       530       523       516       510       516       609       618       721       762 
dram[8]:       765       774       761       757       583       564       530       523       530       531       493       521       648       634       753       731 
dram[9]:       750       759       770       765       570       558       544       530       544       518       514       521       628       626       755       747 
dram[10]:       773       767       750       780       533       539       537       523       530       531       507       507       641       634       752       737 
total reads: 110742
bank skew: 786/493 = 1.59
chip skew: 10188/9974 = 1.02
average mf latency per bank:
dram[0]:      15542     15149     14056     13797     17194     16960     16925     17020     15120     14966     13647     13609     15844     15696     12804     12594
dram[1]:      15411     15227     13574     13932     17293     17069     17083     16931     14600     14894     13753     13889     15354     15348     12495     12744
dram[2]:      15627     15321     13767     13990     17126     17071     17116     17029     14705     15225     13737     13729     15251     15200     12938     13056
dram[3]:      15447     15191     14599     14258     17085     17143     17028     17075     14888     14869     13666     13828     15482     15366     12887     12686
dram[4]:      15390     15026     14073     14102     17411     17175     17606     17286     15039     14799     13822     13561     15493     15622     12560     12884
dram[5]:      15079     15209     14061     14218     17047     17449     17121     17171     14647     14712     13914     14187     15079     15429     12814     12649
dram[6]:      15039     14888     14065     14356     17439     17440     17219     17401     14600     14713     14115     14129     15380     15301     12722     12730
dram[7]:      15498     15285     14392     14065     17303     17564     17339     17165     14605     14714     14253     14026     15459     15380     13088     12637
dram[8]:      15259     15192     14151     14210     17000     17385     17088     17052     14607     14714     14296     13920     15614     15813     12670     12811
dram[9]:      15495     15212     14068     14062     17293     17502     16691     16995     14651     14907     13988     13909     15655     15623     12698     12828
dram[10]:      14857     15000     14234     13875     18123     17886     16807     17041     14598     14618     14182     14179     15216     15296     12710     12888
maximum mf latency per bank:
dram[0]:      43045     43046     43049     43094     42980     42896     43679     43675     43609     43659     41962     42021     42710     42681     42554     42560
dram[1]:      43033     43003     43071     43105     42966     42861     43621     43674     43627     43665     41976     42033     42595     42628     42599     42611
dram[2]:      43011     43014     43082     43092     42923     42875     43631     43673     43624     43672     41980     42043     42596     42635     42610     42624
dram[3]:      43039     43025     43055     43079     42848     42906     43629     43686     43630     43602     41972     42039     42597     42620     42603     42626
dram[4]:      43033     43014     43045     43074     42954     42861     43636     43689     43620     43611     41973     42032     42750     42598     42576     42608
dram[5]:      43024     43026     43038     43074     42839     42897     43640     43687     43639     43662     41979     42020     42746     42591     42582     42592
dram[6]:      43018     43046     43053     43090     42980     42900     43647     43701     43637     43653     41968     42036     42740     42621     42578     42594
dram[7]:      43048     43024     43070     43098     42906     42890     43645     43684     43637     43663     41977     42041     42715     42646     42581     42699
dram[8]:      43038     43180     43066     43089     42875     42897     43646     43690     43641     43627     41970     42066     42620     42657     42560     42572
dram[9]:      43024     43033     43068     43059     42865     42898     43751     43678     43562     43610     41961     42018     42737     42639     42550     42565
dram[10]:      43030     43190     43049     43085     42964     42865     43635     43672     43566     43608     41967     42030     42771     42759     42523     42538
Memory Partition 0: 
Cache L2_bank_000:
MSHR contents

Cache L2_bank_001:
MSHR contents

In Dram Latency Queue (total = 0): 
DRAM[0]: 16 bks, busW=4 BL=8 CL=12, tRRD=2 tCCD=6, tRCD=12 tRAS=28 tRP=12 tRC=40
n_cmd=3076330 n_nop=3020225 n_act=2060 n_pre=2044 n_req=17180 n_rd=28300 n_write=23701 bw_util=0.03381
n_activity=137403 dram_eff=0.7569
bk0: 1812a 3056236i bk1: 1808a 3053246i bk2: 1824a 3054153i bk3: 1824a 3050889i bk4: 1740a 3056256i bk5: 1740a 3053200i bk6: 1728a 3054669i bk7: 1728a 3052743i bk8: 1728a 3056143i bk9: 1728a 3053416i bk10: 1736a 3053703i bk11: 1736a 3051933i bk12: 1792a 3055508i bk13: 1792a 3052902i bk14: 1792a 3055532i bk15: 1792a 3052631i 
dram_util_bins: 0 0 0 0 0 0 0 0 0 0
dram_eff_bins: 0 0 0 0 0 0 0 0 0 0
mrqq: max=64 avg=0.597498
Memory Partition 1: 
Cache L2_bank_002:
MSHR contents

Cache L2_bank_003:
MSHR contents

In Dram Latency Queue (total = 0): 
DRAM[1]: 16 bks, busW=4 BL=8 CL=12, tRRD=2 tCCD=6, tRCD=12 tRAS=28 tRP=12 tRC=40
n_cmd=3076330 n_nop=3020187 n_act=2046 n_pre=2030 n_req=17264 n_rd=28304 n_write=23763 bw_util=0.03385
n_activity=137797 dram_eff=0.7557
bk0: 1808a 3055881i bk1: 1808a 3052593i bk2: 1824a 3053553i bk3: 1824a 3050556i bk4: 1740a 3054949i bk5: 1740a 3052059i bk6: 1728a 3055450i bk7: 1728a 3053735i bk8: 1728a 3056405i bk9: 1728a 3053797i bk10: 1740a 3054970i bk11: 1740a 3052184i bk12: 1792a 3056154i bk13: 1792a 3053653i bk14: 1792a 3055100i bk15: 1792a 3052432i 
dram_util_bins: 0 0 0 0 0 0 0 0 0 0
dram_eff_bins: 0 0 0 0 0 0 0 0 0 0
mrqq: max=64 avg=0.598117
Memory Partition 2: 
Cache L2_bank_004:
MSHR contents

Cache L2_bank_005:
MSHR contents

In Dram Latency Queue (total = 0): 
DRAM[2]: 16 bks, busW=4 BL=8 CL=12, tRRD=2 tCCD=6, tRCD=12 tRAS=28 tRP=12 tRC=40
n_cmd=3076330 n_nop=3020276 n_act=2055 n_pre=2039 n_req=17142 n_rd=28304 n_write=23656 bw_util=0.03378
n_activity=138126 dram_eff=0.7524
bk0: 1808a 3056030i bk1: 1808a 3053108i bk2: 1824a 3054072i bk3: 1824a 3051041i bk4: 1740a 3054936i bk5: 1740a 3052697i bk6: 1728a 3054576i bk7: 1728a 3051983i bk8: 1728a 3056552i bk9: 1728a 3053448i bk10: 1740a 3054149i bk11: 1740a 3051452i bk12: 1792a 3055352i bk13: 1792a 3053394i bk14: 1792a 3055239i bk15: 1792a 3053064i 
dram_util_bins: 0 0 0 0 0 0 0 0 0 0
dram_eff_bins: 0 0 0 0 0 0 0 0 0 0
mrqq: max=64 avg=0.600864
Memory Partition 3: 
Cache L2_bank_006:
MSHR contents

Cache L2_bank_007:
MSHR contents

In Dram Latency Queue (total = 0): 
DRAM[3]: 16 bks, busW=4 BL=8 CL=12, tRRD=2 tCCD=6, tRCD=12 tRAS=28 tRP=12 tRC=40
n_cmd=3076330 n_nop=3020202 n_act=2106 n_pre=2090 n_req=17108 n_rd=28296 n_write=23636 bw_util=0.03376
n_activity=138664 dram_eff=0.749
bk0: 1808a 3056266i bk1: 1808a 3053154i bk2: 1820a 3054643i bk3: 1820a 3052385i bk4: 1740a 3054721i bk5: 1740a 3052792i bk6: 1728a 3054761i bk7: 1728a 3052331i bk8: 1728a 3055882i bk9: 1728a 3053357i bk10: 1740a 3054022i bk11: 1740a 3050748i bk12: 1792a 3055090i bk13: 1792a 3052751i bk14: 1792a 3055079i bk15: 1792a 3052400i 
dram_util_bins: 0 0 0 0 0 0 0 0 0 0
dram_eff_bins: 0 0 0 0 0 0 0 0 0 0
mrqq: max=64 avg=0.603737
Memory Partition 4: 
Cache L2_bank_008:
MSHR contents

Cache L2_bank_009:
MSHR contents

In Dram Latency Queue (total = 0): 
DRAM[4]: 16 bks, busW=4 BL=8 CL=12, tRRD=2 tCCD=6, tRCD=12 tRAS=28 tRP=12 tRC=40
n_cmd=3076330 n_nop=3020211 n_act=2100 n_pre=2084 n_req=17120 n_rd=28300 n_write=23635 bw_util=0.03376
n_activity=138218 dram_eff=0.7515
bk0: 1808a 3055989i bk1: 1808a 3052873i bk2: 1820a 3053740i bk3: 1820a 3051427i bk4: 1740a 3055177i bk5: 1740a 3052944i bk6: 1728a 3054300i bk7: 1728a 3052495i bk8: 1728a 3055946i bk9: 1728a 3054104i bk10: 1740a 3053627i bk11: 1740a 3051049i bk12: 1792a 3054930i bk13: 1788a 3053179i bk14: 1796a 3055076i bk15: 1796a 3052866i 
dram_util_bins: 0 0 0 0 0 0 0 0 0 0
dram_eff_bins: 0 0 0 0 0 0 0 0 0 0
mrqq: max=64 avg=0.600362
Memory Partition 5: 
Cache L2_bank_010:
MSHR contents

Cache L2_bank_011:
MSHR contents

In Dram Latency Queue (total = 0): 
DRAM[5]: 16 bks, busW=4 BL=8 CL=12, tRRD=2 tCCD=6, tRCD=12 tRAS=28 tRP=12 tRC=40
n_cmd=3076330 n_nop=3020246 n_act=2076 n_pre=2060 n_req=17124 n_rd=28296 n_write=23652 bw_util=0.03377
n_activity=138970 dram_eff=0.7476
bk0: 1808a 3055881i bk1: 1808a 3053117i bk2: 1820a 3053557i bk3: 1820a 3052006i bk4: 1740a 3055166i bk5: 1740a 3052891i bk6: 1728a 3054793i bk7: 1728a 3053167i bk8: 1728a 3056333i bk9: 1728a 3053547i bk10: 1740a 3054160i bk11: 1740a 3051691i bk12: 1788a 3055074i bk13: 1788a 3053104i bk14: 1796a 3055810i bk15: 1796a 3053056i 
dram_util_bins: 0 0 0 0 0 0 0 0 0 0
dram_eff_bins: 0 0 0 0 0 0 0 0 0 0
mrqq: max=64 avg=0.598715
Memory Partition 6: 
Cache L2_bank_012:
MSHR contents

Cache L2_bank_013:
MSHR contents

In Dram Latency Queue (total = 0): 
DRAM[6]: 16 bks, busW=4 BL=8 CL=12, tRRD=2 tCCD=6, tRCD=12 tRAS=28 tRP=12 tRC=40
n_cmd=3076330 n_nop=3020192 n_act=2107 n_pre=2091 n_req=17116 n_rd=28296 n_write=23644 bw_util=0.03377
n_activity=138340 dram_eff=0.7509
bk0: 1808a 3056059i bk1: 1808a 3053462i bk2: 1820a 3053570i bk3: 1820a 3050103i bk4: 1740a 3053900i bk5: 1740a 3051087i bk6: 1728a 3053843i bk7: 1728a 3052108i bk8: 1728a 3055899i bk9: 1728a 3054316i bk10: 1740a 3055447i bk11: 1740a 3052742i bk12: 1788a 3055341i bk13: 1788a 3053821i bk14: 1796a 3055415i bk15: 1796a 3052781i 
dram_util_bins: 0 0 0 0 0 0 0 0 0 0
dram_eff_bins: 0 0 0 0 0 0 0 0 0 0
[...]
F:  5626587----T:  5630806 	 St: c1880000 Sz: 24576 	 Sm: 0 	 T: memcpy_h2d(2.848751)
F:  5630806----T:  5636767 	 St: c1886000 Sz: 40960 	 Sm: 0 	 T: memcpy_h2d(4.024983)
F:  5636767----T:  5639372 	 St: c1890000 Sz: 4096 	 Sm: 0 	 T: memcpy_h2d(1.758947)
F:  5639372----T:  5647612 	 St: c1891000 Sz: 61440 	 Sm: 0 	 T: memcpy_h2d(5.563808)
F:  5647612----T:  5652253 	 St: c0fd0000 Sz: 28672 	 Sm: 0 	 T: memcpy_h2d(3.133693)
F:  5652253----T:  5657768 	 St: c0fd7000 Sz: 36864 	 Sm: 0 	 T: memcpy_h2d(3.723835)
F:  5657768----T:  5660373 	 St: c0fe0000 Sz: 4096 	 Sm: 0 	 T: memcpy_h2d(1.758947)
F:  5660373----T:  5668613 	 St: c0fe1000 Sz: 61440 	 Sm: 0 	 T: memcpy_h2d(5.563808)
F:  5668613----T:  5671699 	 St: c0ff0000 Sz: 12288 	 Sm: 0 	 T: memcpy_h2d(2.083727)
F:  5671699----T:  5679021 	 St: c0ff3000 Sz: 53248 	 Sm: 0 	 T: memcpy_h2d(4.943957)
F:  5679021----T:  5681626 	 St: c1000000 Sz: 4096 	 Sm: 0 	 T: memcpy_h2d(1.758947)
F:  5681626----T:  5689866 	 St: c1001000 Sz: 61440 	 Sm: 0 	 T: memcpy_h2d(5.563808)
F:  5695147----T:  5699788 	 St: c18a0000 Sz: 28672 	 Sm: 0 	 T: memcpy_h2d(3.133693)
F:  5699788----T:  5705303 	 St: c18a7000 Sz: 36864 	 Sm: 0 	 T: memcpy_h2d(3.723835)
F:  5705303----T:  5708389 	 St: c18b0000 Sz: 12288 	 Sm: 0 	 T: memcpy_h2d(2.083727)
F:  5708389----T:  5715711 	 St: c18b3000 Sz: 53248 	 Sm: 0 	 T: memcpy_h2d(4.943957)
F:  5715711----T:  5718511 	 St: c18c0000 Sz: 8192 	 Sm: 0 	 T: memcpy_h2d(1.890614)
F:  5718511----T:  5726291 	 St: c18c2000 Sz: 57344 	 Sm: 0 	 T: memcpy_h2d(5.253207)
F:  5726291----T:  5728896 	 St: c1010000 Sz: 4096 	 Sm: 0 	 T: memcpy_h2d(1.758947)
F:  5728896----T:  5737136 	 St: c1011000 Sz: 61440 	 Sm: 0 	 T: memcpy_h2d(5.563808)
F:  5737136----T:  5739741 	 St: c1020000 Sz: 4096 	 Sm: 0 	 T: memcpy_h2d(1.758947)
F:  5739741----T:  5747981 	 St: c1021000 Sz: 61440 	 Sm: 0 	 T: memcpy_h2d(5.563808)
F:  5747981----T:  5750586 	 St: c1030000 Sz: 4096 	 Sm: 0 	 T: memcpy_h2d(1.758947)
F:  5750586----T:  5758826 	 St: c1031000 Sz: 61440 	 Sm: 0 	 T: memcpy_h2d(5.563808)
F:  5761664----T:  5768076 	 St: c18d0000 Sz: 45056 	 Sm: 0 	 T: memcpy_h2d(4.329507)
F:  5768076----T:  5771888 	 St: c18db000 Sz: 20480 	 Sm: 0 	 T: memcpy_h2d(2.573936)
F:  5771888----T:  5774493 	 St: c18e0000 Sz: 4096 	 Sm: 0 	 T: memcpy_h2d(1.758947)
F:  5774493----T:  5782733 	 St: c18e1000 Sz: 61440 	 Sm: 0 	 T: memcpy_h2d(5.563808)
F:  5782733----T:  5788248 	 St: c18f0000 Sz: 36864 	 Sm: 0 	 T: memcpy_h2d(3.723835)
F:  5788248----T:  5792889 	 St: c18f9000 Sz: 28672 	 Sm: 0 	 T: memcpy_h2d(3.133693)
F:  5792889----T:  5795494 	 St: c1040000 Sz: 4096 	 Sm: 0 	 T: memcpy_h2d(1.758947)
F:  5795494----T:  5803734 	 St: c1041000 Sz: 61440 	 Sm: 0 	 T: memcpy_h2d(5.563808)
F:  5803734----T:  5806339 	 St: c1050000 Sz: 4096 	 Sm: 0 	 T: memcpy_h2d(1.758947)
F:  5806339----T:  5814579 	 St: c1051000 Sz: 61440 	 Sm: 0 	 T: memcpy_h2d(5.563808)
F:  5814579----T:  5817184 	 St: c1060000 Sz: 4096 	 Sm: 0 	 T: memcpy_h2d(1.758947)
F:  5817184----T:  5819984 	 St: c1061000 Sz: 8192 	 Sm: 0 	 T: memcpy_h2d(1.890614)
F:  5819984----T:  5827306 	 St: c1063000 Sz: 53248 	 Sm: 0 	 T: memcpy_h2d(4.943957)
F:  5829570----T:  5832175 	 St: c1900000 Sz: 4096 	 Sm: 0 	 T: memcpy_h2d(1.758947)
F:  5832175----T:  5840415 	 St: c1901000 Sz: 61440 	 Sm: 0 	 T: memcpy_h2d(5.563808)
F:  5840415----T:  5843020 	 St: c1910000 Sz: 4096 	 Sm: 0 	 T: memcpy_h2d(1.758947)
F:  5843020----T:  5851260 	 St: c1911000 Sz: 61440 	 Sm: 0 	 T: memcpy_h2d(5.563808)
F:  5851260----T:  5859040 	 St: c1920000 Sz: 57344 	 Sm: 0 	 T: memcpy_h2d(5.253207)
F:  5859040----T:  5861840 	 St: c192e000 Sz: 8192 	 Sm: 0 	 T: memcpy_h2d(1.890614)
F:  5861840----T:  5864445 	 St: c1070000 Sz: 4096 	 Sm: 0 	 T: memcpy_h2d(1.758947)
F:  5864445----T:  5872685 	 St: c1071000 Sz: 61440 	 Sm: 0 	 T: memcpy_h2d(5.563808)
F:  5872685----T:  5875290 	 St: c1080000 Sz: 4096 	 Sm: 0 	 T: memcpy_h2d(1.758947)
F:  5875290----T:  5883530 	 St: c1081000 Sz: 61440 	 Sm: 0 	 T: memcpy_h2d(5.563808)
F:  5883530----T:  5886960 	 St: c1090000 Sz: 16384 	 Sm: 0 	 T: memcpy_h2d(2.316003)
F:  5886960----T:  5893825 	 St: c1094000 Sz: 49152 	 Sm: 0 	 T: memcpy_h2d(4.635382)
F:  5896019----T:  5900238 	 St: c1930000 Sz: 24576 	 Sm: 0 	 T: memcpy_h2d(2.848751)
F:  5900238----T:  5906199 	 St: c1936000 Sz: 40960 	 Sm: 0 	 T: memcpy_h2d(4.024983)
F:  5906199----T:  5910011 	 St: c1940000 Sz: 20480 	 Sm: 0 	 T: memcpy_h2d(2.573936)
F:  5910011----T:  5916423 	 St: c1945000 Sz: 45056 	 Sm: 0 	 T: memcpy_h2d(4.329507)
F:  5916423----T:  5924203 	 St: c1950000 Sz: 57344 	 Sm: 0 	 T: memcpy_h2d(5.253207)
F:  5924203----T:  5927003 	 St: c195e000 Sz: 8192 	 Sm: 0 	 T: memcpy_h2d(1.890614)
F:  5927003----T:  5930433 	 St: c10a0000 Sz: 16384 	 Sm: 0 	 T: memcpy_h2d(2.316003)
F:  5930433----T:  5937298 	 St: c10a4000 Sz: 49152 	 Sm: 0 	 T: memcpy_h2d(4.635382)
F:  5937298----T:  5940098 	 St: c10b0000 Sz: 8192 	 Sm: 0 	 T: memcpy_h2d(1.890614)
F:  5940098----T:  5942898 	 St: c10b2000 Sz: 8192 	 Sm: 0 	 T: memcpy_h2d(1.890614)
F:  5942898----T:  5949763 	 St: c10b4000 Sz: 49152 	 Sm: 0 	 T: memcpy_h2d(4.635382)
F:  5949763----T:  5953982 	 St: c10c0000 Sz: 24576 	 Sm: 0 	 T: memcpy_h2d(2.848751)
F:  5953982----T:  5959943 	 St: c10c6000 Sz: 40960 	 Sm: 0 	 T: memcpy_h2d(4.024983)
F:  5962191----T:  5965621 	 St: c1960000 Sz: 16384 	 Sm: 0 	 T: memcpy_h2d(2.316003)
F:  5965621----T:  5972486 	 St: c1964000 Sz: 49152 	 Sm: 0 	 T: memcpy_h2d(4.635382)
F:  5972486----T:  5978001 	 St: c1970000 Sz: 36864 	 Sm: 0 	 T: memcpy_h2d(3.723835)
F:  5978001----T:  5982642 	 St: c1979000 Sz: 28672 	 Sm: 0 	 T: memcpy_h2d(3.133693)
F:  5982642----T:  5991344 	 St: c1980000 Sz: 65536 	 Sm: 0 	 T: memcpy_h2d(5.875760)
F:  5991344----T:  5993949 	 St: c1990000 Sz: 4096 	 Sm: 0 	 T: memcpy_h2d(1.758947)
F:  5993949----T:  6002189 	 St: c1991000 Sz: 61440 	 Sm: 0 	 T: memcpy_h2d(5.563808)
F:  6002189----T:  6005619 	 St: c10d0000 Sz: 16384 	 Sm: 0 	 T: memcpy_h2d(2.316003)
F:  6005619----T:  6012484 	 St: c10d4000 Sz: 49152 	 Sm: 0 	 T: memcpy_h2d(4.635382)
F:  6012484----T:  6015089 	 St: c10e0000 Sz: 4096 	 Sm: 0 	 T: memcpy_h2d(1.758947)
F:  6015089----T:  6023329 	 St: c10e1000 Sz: 61440 	 Sm: 0 	 T: memcpy_h2d(5.563808)
F:  6023329----T:  6026759 	 St: c10f0000 Sz: 16384 	 Sm: 0 	 T: memcpy_h2d(2.316003)
F:  6026759----T:  6033624 	 St: c10f4000 Sz: 49152 	 Sm: 0 	 T: memcpy_h2d(4.635382)
F:  6033624----T:  6036229 	 St: c1100000 Sz: 4096 	 Sm: 0 	 T: memcpy_h2d(1.758947)
F:  6036229----T:  6044469 	 St: c1101000 Sz: 61440 	 Sm: 0 	 T: memcpy_h2d(5.563808)
F:  6047293----T:  6052367 	 St: c19a0000 Sz: 32768 	 Sm: 0 	 T: memcpy_h2d(3.426064)
F:  6052367----T:  6057441 	 St: c19a8000 Sz: 32768 	 Sm: 0 	 T: memcpy_h2d(3.426064)
F:  6057441----T:  6062082 	 St: c19b0000 Sz: 28672 	 Sm: 0 	 T: memcpy_h2d(3.133693)
F:  6062082----T:  6067597 	 St: c19b7000 Sz: 36864 	 Sm: 0 	 T: memcpy_h2d(3.723835)
F:  6067597----T:  6072238 	 St: c19c0000 Sz: 28672 	 Sm: 0 	 T: memcpy_h2d(3.133693)
F:  6072238----T:  6077753 	 St: c19c7000 Sz: 36864 	 Sm: 0 	 T: memcpy_h2d(3.723835)
F:  6077753----T:  6081565 	 St: c1110000 Sz: 20480 	 Sm: 0 	 T: memcpy_h2d(2.573936)
F:  6081565----T:  6087977 	 St: c1115000 Sz: 45056 	 Sm: 0 	 T: memcpy_h2d(4.329507)
F:  6087977----T:  6090582 	 St: c1120000 Sz: 4096 	 Sm: 0 	 T: memcpy_h2d(1.758947)
F:  6090582----T:  6098822 	 St: c1121000 Sz: 61440 	 Sm: 0 	 T: memcpy_h2d(5.563808)
F:  6098822----T:  6101427 	 St: c1130000 Sz: 4096 	 Sm: 0 	 T: memcpy_h2d(1.758947)
F:  6101427----T:  6104032 	 St: c1131000 Sz: 4096 	 Sm: 0 	 T: memcpy_h2d(1.758947)
F:  6104032----T:  6106637 	 St: c1132000 Sz: 4096 	 Sm: 0 	 T: memcpy_h2d(1.758947)
F:  6106637----T:  6113959 	 St: c1133000 Sz: 53248 	 Sm: 0 	 T: memcpy_h2d(4.943957)
F:  6116175----T:  6118780 	 St: c19d0000 Sz: 4096 	 Sm: 0 	 T: memcpy_h2d(1.758947)
F:  6118780----T:  6127020 	 St: c19d1000 Sz: 61440 	 Sm: 0 	 T: memcpy_h2d(5.563808)
F:  6127020----T:  6132094 	 St: c19e0000 Sz: 32768 	 Sm: 0 	 T: memcpy_h2d(3.426064)
F:  6132094----T:  6137168 	 St: c19e8000 Sz: 32768 	 Sm: 0 	 T: memcpy_h2d(3.426064)
F:  6137168----T:  6142683 	 St: c19f0000 Sz: 36864 	 Sm: 0 	 T: memcpy_h2d(3.723835)
F:  6142683----T:  6147324 	 St: c19f9000 Sz: 28672 	 Sm: 0 	 T: memcpy_h2d(3.133693)
F:  6147324----T:  6149929 	 St: c1140000 Sz: 4096 	 Sm: 0 	 T: memcpy_h2d(1.758947)
F:  6149929----T:  6158169 	 St: c1141000 Sz: 61440 	 Sm: 0 	 T: memcpy_h2d(5.563808)
F:  6158169----T:  6160774 	 St: c1150000 Sz: 4096 	 Sm: 0 	 T: memcpy_h2d(1.758947)
F:  6160774----T:  6169014 	 St: c1151000 Sz: 61440 	 Sm: 0 	 T: memcpy_h2d(5.563808)
F:  6169014----T:  6172444 	 St: c1160000 Sz: 16384 	 Sm: 0 	 T: memcpy_h2d(2.316003)
F:  6172444----T:  6179309 	 St: c1164000 Sz: 49152 	 Sm: 0 	 T: memcpy_h2d(4.635382)
F:  6182106----T:  6185192 	 St: c1a00000 Sz: 12288 	 Sm: 0 	 T: memcpy_h2d(2.083727)
F:  6185192----T:  6192514 	 St: c1a03000 Sz: 53248 	 Sm: 0 	 T: memcpy_h2d(4.943957)
F:  6192514----T:  6196326 	 St: c1a10000 Sz: 20480 	 Sm: 0 	 T: memcpy_h2d(2.573936)
F:  6196326----T:  6202738 	 St: c1a15000 Sz: 45056 	 Sm: 0 	 T: memcpy_h2d(4.329507)
F:  6202738----T:  6205343 	 St: c1a20000 Sz: 4096 	 Sm: 0 	 T: memcpy_h2d(1.758947)
F:  6205343----T:  6213583 	 St: c1a21000 Sz: 61440 	 Sm: 0 	 T: memcpy_h2d(5.563808)
F:  6213583----T:  6216669 	 St: c1170000 Sz: 12288 	 Sm: 0 	 T: memcpy_h2d(2.083727)
F:  6216669----T:  6223991 	 St: c1173000 Sz: 53248 	 Sm: 0 	 T: memcpy_h2d(4.943957)
F:  6223991----T:  6226596 	 St: c1180000 Sz: 4096 	 Sm: 0 	 T: memcpy_h2d(1.758947)
F:  6226596----T:  6234836 	 St: c1181000 Sz: 61440 	 Sm: 0 	 T: memcpy_h2d(5.563808)
F:  6234836----T:  6237441 	 St: c1190000 Sz: 4096 	 Sm: 0 	 T: memcpy_h2d(1.758947)
F:  6237441----T:  6245681 	 St: c1191000 Sz: 61440 	 Sm: 0 	 T: memcpy_h2d(5.563808)
F:  6248568----T:  6254083 	 St: c1a30000 Sz: 36864 	 Sm: 0 	 T: memcpy_h2d(3.723835)
F:  6254083----T:  6258724 	 St: c1a39000 Sz: 28672 	 Sm: 0 	 T: memcpy_h2d(3.133693)
F:  6258724----T:  6261329 	 St: c1a40000 Sz: 4096 	 Sm: 0 	 T: memcpy_h2d(1.758947)
F:  6261329----T:  6269569 	 St: c1a41000 Sz: 61440 	 Sm: 0 	 T: memcpy_h2d(5.563808)
F:  6269569----T:  6274643 	 St: c1a50000 Sz: 32768 	 Sm: 0 	 T: memcpy_h2d(3.426064)
F:  6274643----T:  6279717 	 St: c1a58000 Sz: 32768 	 Sm: 0 	 T: memcpy_h2d(3.426064)
F:  6279717----T:  6284358 	 St: c11a0000 Sz: 28672 	 Sm: 0 	 T: memcpy_h2d(3.133693)
F:  6284358----T:  6289873 	 St: c11a7000 Sz: 36864 	 Sm: 0 	 T: memcpy_h2d(3.723835)
F:  6289873----T:  6292478 	 St: c11b0000 Sz: 4096 	 Sm: 0 	 T: memcpy_h2d(1.758947)
F:  6292478----T:  6300718 	 St: c11b1000 Sz: 61440 	 Sm: 0 	 T: memcpy_h2d(5.563808)
F:  6300718----T:  6304530 	 St: c11c0000 Sz: 20480 	 Sm: 0 	 T: memcpy_h2d(2.573936)
F:  6304530----T:  6310942 	 St: c11c5000 Sz: 45056 	 Sm: 0 	 T: memcpy_h2d(4.329507)
F:  6314210----T:  6316815 	 St: 0 Sz: 4096 	 Sm: 0 	 T: device_sync(1.758947)
F:  6314210----T:  6322450 	 St: 0 Sz: 61440 	 Sm: 0 	 T: device_sync(5.563808)
F:  6325055----T:  6327660 	 St: 0 Sz: 4096 	 Sm: 0 	 T: device_sync(1.758947)
F:  6325055----T:  6333295 	 St: 0 Sz: 61440 	 Sm: 0 	 T: device_sync(5.563808)
F:  6335900----T:  6338505 	 St: 0 Sz: 4096 	 Sm: 0 	 T: device_sync(1.758947)
F:  6335900----T:  6351595 	 St: 0 Sz: 126976 	 Sm: 0 	 T: device_sync(10.597569)
F:  6354200----T:  6356805 	 St: 0 Sz: 4096 	 Sm: 0 	 T: device_sync(1.758947)
F:  6354200----T:  6384923 	 St: 0 Sz: 258048 	 Sm: 0 	 T: device_sync(20.744766)
F:  6387528----T:  6390133 	 St: 0 Sz: 4096 	 Sm: 0 	 T: device_sync(1.758947)
F:  6387528----T:  6448364 	 St: 0 Sz: 520192 	 Sm: 0 	 T: device_sync(41.077652)
F:  6450969----T:  6453574 	 St: 0 Sz: 4096 	 Sm: 0 	 T: device_sync(1.758947)
F:  6450969----T:  6572058 	 St: 0 Sz: 1044480 	 Sm: 0 	 T: device_sync(81.761650)
F:  6574663----T:  6577268 	 St: 0 Sz: 4096 	 Sm: 0 	 T: device_sync(1.758947)
F:  6574663----T:  6582903 	 St: 0 Sz: 61440 	 Sm: 0 	 T: device_sync(5.563808)
F:  6585508----T:  6588113 	 St: 0 Sz: 4096 	 Sm: 0 	 T: device_sync(1.758947)
F:  6585508----T:  6593748 	 St: 0 Sz: 61440 	 Sm: 0 	 T: device_sync(5.563808)
F:  6596353----T:  6598958 	 St: 0 Sz: 4096 	 Sm: 0 	 T: device_sync(1.758947)
F:  6596353----T:  6612048 	 St: 0 Sz: 126976 	 Sm: 0 	 T: device_sync(10.597569)
F:  6614653----T:  6617258 	 St: 0 Sz: 4096 	 Sm: 0 	 T: device_sync(1.758947)
F:  6614653----T:  6645376 	 St: 0 Sz: 258048 	 Sm: 0 	 T: device_sync(20.744766)
F:  6647981----T:  6650586 	 St: 0 Sz: 4096 	 Sm: 0 	 T: device_sync(1.758947)
F:  6647981----T:  6708817 	 St: 0 Sz: 520192 	 Sm: 0 	 T: device_sync(41.077652)
F:  6711422----T:  6714027 	 St: 0 Sz: 4096 	 Sm: 0 	 T: device_sync(1.758947)
F:  6711422----T:  6832511 	 St: 0 Sz: 1044480 	 Sm: 0 	 T: device_sync(81.761650)
F:  6835116----T:  6837721 	 St: 0 Sz: 4096 	 Sm: 0 	 T: device_sync(1.758947)
F:  6835116----T:  6843356 	 St: 0 Sz: 61440 	 Sm: 0 	 T: device_sync(5.563808)
F:  6845961----T:  6848566 	 St: 0 Sz: 4096 	 Sm: 0 	 T: device_sync(1.758947)
F:  6845961----T:  6854201 	 St: 0 Sz: 61440 	 Sm: 0 	 T: device_sync(5.563808)
F:  6856806----T:  6859411 	 St: 0 Sz: 4096 	 Sm: 0 	 T: device_sync(1.758947)
F:  6856806----T:  6872501 	 St: 0 Sz: 126976 	 Sm: 0 	 T: device_sync(10.597569)
F:  6875106----T:  6877711 	 St: 0 Sz: 4096 	 Sm: 0 	 T: device_sync(1.758947)
F:  6875106----T:  6905829 	 St: 0 Sz: 258048 	 Sm: 0 	 T: device_sync(20.744766)
F:  6908434----T:  6911039 	 St: 0 Sz: 4096 	 Sm: 0 	 T: device_sync(1.758947)
F:  6908434----T:  6969270 	 St: 0 Sz: 520192 	 Sm: 0 	 T: device_sync(41.077652)
F:  6971875----T:  6974480 	 St: 0 Sz: 4096 	 Sm: 0 	 T: device_sync(1.758947)
F:  6971875----T:  7092964 	 St: 0 Sz: 1044480 	 Sm: 0 	 T: device_sync(81.761650)
F:  7095569----T:  7098174 	 St: 0 Sz: 4096 	 Sm: 0 	 T: device_sync(1.758947)
F:  7095569----T:  7103809 	 St: 0 Sz: 61440 	 Sm: 0 	 T: device_sync(5.563808)
F:  7106414----T:  7109019 	 St: 0 Sz: 4096 	 Sm: 0 	 T: device_sync(1.758947)
F:  7106414----T:  7114654 	 St: 0 Sz: 61440 	 Sm: 0 	 T: device_sync(5.563808)
F:  7117259----T:  7119864 	 St: 0 Sz: 4096 	 Sm: 0 	 T: device_sync(1.758947)
F:  7117259----T:  7132954 	 St: 0 Sz: 126976 	 Sm: 0 	 T: device_sync(10.597569)
F:  7135559----T:  7138164 	 St: 0 Sz: 4096 	 Sm: 0 	 T: device_sync(1.758947)
F:  7135559----T:  7166282 	 St: 0 Sz: 258048 	 Sm: 0 	 T: device_sync(20.744766)
F:  7168887----T:  7171492 	 St: 0 Sz: 4096 	 Sm: 0 	 T: device_sync(1.758947)
F:  7168887----T:  7229723 	 St: 0 Sz: 520192 	 Sm: 0 	 T: device_sync(41.077652)
F:  7232328----T:  7234933 	 St: 0 Sz: 4096 	 Sm: 0 	 T: device_sync(1.758947)
F:  7232328----T:  7353417 	 St: 0 Sz: 1044480 	 Sm: 0 	 T: device_sync(81.761650)
F:  7356022----T:  7358627 	 St: 0 Sz: 4096 	 Sm: 0 	 T: device_sync(1.758947)
F:  7356022----T:  7364262 	 St: 0 Sz: 61440 	 Sm: 0 	 T: device_sync(5.563808)
F:  7366867----T:  7369472 	 St: 0 Sz: 4096 	 Sm: 0 	 T: device_sync(1.758947)
F:  7366867----T:  7375107 	 St: 0 Sz: 61440 	 Sm: 0 	 T: device_sync(5.563808)
F:  7377712----T:  7380317 	 St: 0 Sz: 4096 	 Sm: 0 	 T: device_sync(1.758947)
F:  7377712----T:  7393407 	 St: 0 Sz: 126976 	 Sm: 0 	 T: device_sync(10.597569)
F:  7396012----T:  7398617 	 St: 0 Sz: 4096 	 Sm: 0 	 T: device_sync(1.758947)
F:  7396012----T:  7426735 	 St: 0 Sz: 258048 	 Sm: 0 	 T: device_sync(20.744766)
F:  7429340----T:  7431945 	 St: 0 Sz: 4096 	 Sm: 0 	 T: device_sync(1.758947)
F:  7429340----T:  7490176 	 St: 0 Sz: 520192 	 Sm: 0 	 T: device_sync(41.077652)
F:  7492781----T:  7495386 	 St: 0 Sz: 4096 	 Sm: 0 	 T: device_sync(1.758947)
F:  7492781----T:  7613870 	 St: 0 Sz: 1044480 	 Sm: 0 	 T: device_sync(81.761650)
F:  7616475----T:  7619080 	 St: 0 Sz: 4096 	 Sm: 0 	 T: device_sync(1.758947)
F:  7616475----T:  7624715 	 St: 0 Sz: 61440 	 Sm: 0 	 T: device_sync(5.563808)
F:  7627320----T:  7629925 	 St: 0 Sz: 4096 	 Sm: 0 	 T: device_sync(1.758947)
F:  7627320----T:  7635560 	 St: 0 Sz: 61440 	 Sm: 0 	 T: device_sync(5.563808)
F:  7638165----T:  7640770 	 St: 0 Sz: 4096 	 Sm: 0 	 T: device_sync(1.758947)
F:  7638165----T:  7653860 	 St: 0 Sz: 126976 	 Sm: 0 	 T: device_sync(10.597569)
F:  7656465----T:  7659070 	 St: 0 Sz: 4096 	 Sm: 0 	 T: device_sync(1.758947)
F:  7656465----T:  7687188 	 St: 0 Sz: 258048 	 Sm: 0 	 T: device_sync(20.744766)
F:  7689793----T:  7692398 	 St: 0 Sz: 4096 	 Sm: 0 	 T: device_sync(1.758947)
F:  7689793----T:  7750629 	 St: 0 Sz: 520192 	 Sm: 0 	 T: device_sync(41.077652)
F:  7753234----T:  7755839 	 St: 0 Sz: 4096 	 Sm: 0 	 T: device_sync(1.758947)
F:  7753234----T:  7874323 	 St: 0 Sz: 1044480 	 Sm: 0 	 T: device_sync(81.761650)
F:  7876928----T:  7879533 	 St: 0 Sz: 4096 	 Sm: 0 	 T: device_sync(1.758947)
F:  7876928----T:  7885168 	 St: 0 Sz: 61440 	 Sm: 0 	 T: device_sync(5.563808)
F:  7887773----T:  7890378 	 St: 0 Sz: 4096 	 Sm: 0 	 T: device_sync(1.758947)
F:  7887773----T:  7896013 	 St: 0 Sz: 61440 	 Sm: 0 	 T: device_sync(5.563808)
F:  7898618----T:  7901223 	 St: 0 Sz: 4096 	 Sm: 0 	 T: device_sync(1.758947)
F:  7898618----T:  7914313 	 St: 0 Sz: 126976 	 Sm: 0 	 T: device_sync(10.597569)
F:  7916918----T:  7919523 	 St: 0 Sz: 4096 	 Sm: 0 	 T: device_sync(1.758947)
F:  7916918----T:  7947641 	 St: 0 Sz: 258048 	 Sm: 0 	 T: device_sync(20.744766)
F:  7950246----T:  7952851 	 St: 0 Sz: 4096 	 Sm: 0 	 T: device_sync(1.758947)
F:  7950246----T:  8011082 	 St: 0 Sz: 520192 	 Sm: 0 	 T: device_sync(41.077652)
F:  8013687----T:  8016292 	 St: 0 Sz: 4096 	 Sm: 0 	 T: device_sync(1.758947)
F:  8013687----T:  8134776 	 St: 0 Sz: 1044480 	 Sm: 0 	 T: device_sync(81.761650)
F:  8137381----T:  8139986 	 St: 0 Sz: 4096 	 Sm: 0 	 T: device_sync(1.758947)
F:  8137381----T:  8145621 	 St: 0 Sz: 61440 	 Sm: 0 	 T: device_sync(5.563808)
F:  8148226----T:  8150831 	 St: 0 Sz: 4096 	 Sm: 0 	 T: device_sync(1.758947)
F:  8148226----T:  8156466 	 St: 0 Sz: 61440 	 Sm: 0 	 T: device_sync(5.563808)
F:  8159071----T:  8161676 	 St: 0 Sz: 4096 	 Sm: 0 	 T: device_sync(1.758947)
F:  8159071----T:  8174766 	 St: 0 Sz: 126976 	 Sm: 0 	 T: device_sync(10.597569)
F:  8177371----T:  8179976 	 St: 0 Sz: 4096 	 Sm: 0 	 T: device_sync(1.758947)
F:  8177371----T:  8208094 	 St: 0 Sz: 258048 	 Sm: 0 	 T: device_sync(20.744766)
F:  8210699----T:  8213304 	 St: 0 Sz: 4096 	 Sm: 0 	 T: device_sync(1.758947)
F:  8210699----T:  8271535 	 St: 0 Sz: 520192 	 Sm: 0 	 T: device_sync(41.077652)
F:  8274140----T:  8276745 	 St: 0 Sz: 4096 	 Sm: 0 	 T: device_sync(1.758947)
F:  8274140----T:  8395229 	 St: 0 Sz: 1044480 	 Sm: 0 	 T: device_sync(81.761650)
F:  8397834----T:  8400439 	 St: 0 Sz: 4096 	 Sm: 0 	 T: device_sync(1.758947)
F:  8397834----T:  8406074 	 St: 0 Sz: 61440 	 Sm: 0 	 T: device_sync(5.563808)
F:  8408679----T:  8411284 	 St: 0 Sz: 4096 	 Sm: 0 	 T: device_sync(1.758947)
F:  8408679----T:  8416919 	 St: 0 Sz: 61440 	 Sm: 0 	 T: device_sync(5.563808)
F:  8419524----T:  8422129 	 St: 0 Sz: 4096 	 Sm: 0 	 T: device_sync(1.758947)
F:  8419524----T:  8435219 	 St: 0 Sz: 126976 	 Sm: 0 	 T: device_sync(10.597569)
F:  8437824----T:  8440429 	 St: 0 Sz: 4096 	 Sm: 0 	 T: device_sync(1.758947)
F:  8437824----T:  8468547 	 St: 0 Sz: 258048 	 Sm: 0 	 T: device_sync(20.744766)
F:  8471152----T:  8473757 	 St: 0 Sz: 4096 	 Sm: 0 	 T: device_sync(1.758947)
F:  8471152----T:  8531988 	 St: 0 Sz: 520192 	 Sm: 0 	 T: device_sync(41.077652)
Tot_prefetch_time: 0(cycle), 0.000000(us)
Tot_kernel_exec_time: 4691339(cycle), 3167.683350(us)
Tot_kernel_exec_time_and_fault_time: 35348039(cycle), 23867.683594(us)
Tot_memcpy_h2d_time: 4541879(cycle), 3066.765137(us)
Tot_memcpy_d2h_time: 0(cycle), 0.000000(us)
Tot_memcpy_time: 4541879(cycle), 3066.765137(us)
Tot_devicesync_time: 3398954(cycle), 2295.039795(us)
Tot_writeback_time: 0(cycle), 0.000000(us)
Tot_dma_time: 0(cycle), 0.000000(us)
Tot_memcpy_d2h_sync_wb_time: 3398954(cycle), 2295.039795(us)
GPGPU-Sim: *** exit detected ***
