

        *** GPGPU-Sim Simulator Version 3.2.2  [build gpgpu-sim_git-commit-1c1adf09f9d1bccf70ff97255c2b46b40ff0e800_modified_0] ***


GPGPU-Sim PTX: simulation mode 0 (can change with PTX_SIM_MODE_FUNC environment variable:
               1=functional simulation only, 0=detailed performance simulator)
GPGPU-Sim: Configuration options:

-network_mode                           1 # Interconnection network mode
-inter_config_file   config_fermi_islip.icnt # Interconnection network config file
-gpgpu_ptx_use_cuobjdump                    1 # Use cuobjdump to extract ptx and sass from binaries
-gpgpu_experimental_lib_support                    0 # Try to extract code from cuda libraries [Broken because of unknown cudaGetExportTable]
-gpgpu_ptx_convert_to_ptxplus                    0 # Convert SASS (native ISA) to ptxplus and run ptxplus
-gpgpu_ptx_force_max_capability                   20 # Force maximum compute capability
-gpgpu_ptx_inst_debug_to_file                    0 # Dump executed instructions' debug information to file
-gpgpu_ptx_inst_debug_file       inst_debug.txt # Executed instructions' debug output file
-gpgpu_ptx_inst_debug_thread_uid                    1 # Thread UID for executed instructions' debug output
-gpgpu_simd_model                       1 # 1 = post-dominator
-gpgpu_shader_core_pipeline              2048:32 # shader core pipeline config, i.e., {<nthread>:<warpsize>}
-gpgpu_tex_cache:l1  16:128:24,L:R:m:N:L,F:128:4,128:2 # per-shader L1 texture cache  (READ-ONLY) config  {<nsets>:<bsize>:<assoc>,<rep>:<wr>:<alloc>:<wr_alloc>,<mshr>:<N>:<merge>,<mq>:<rf>}
-gpgpu_const_cache:l1 128:64:2,L:R:f:N:L,A:2:64,4 # per-shader L1 constant memory cache  (READ-ONLY) config  {<nsets>:<bsize>:<assoc>,<rep>:<wr>:<alloc>:<wr_alloc>,<mshr>:<N>:<merge>,<mq>} 
-gpgpu_cache:il1     8:128:4,L:R:f:N:L,A:2:48,4 # shader L1 instruction cache config  {<nsets>:<bsize>:<assoc>,<rep>:<wr>:<alloc>:<wr_alloc>,<mshr>:<N>:<merge>,<mq>} 
-gpgpu_cache:dl1     64:128:6,L:L:m:N:H,A:128:8,8 # per-shader L1 data cache config  {<nsets>:<bsize>:<assoc>,<rep>:<wr>:<alloc>:<wr_alloc>,<mshr>:<N>:<merge>,<mq> | none}
-gpgpu_cache:dl1PrefL1                 none # per-shader L1 data cache config  {<nsets>:<bsize>:<assoc>,<rep>:<wr>:<alloc>:<wr_alloc>,<mshr>:<N>:<merge>,<mq> | none}
-gpgpu_cache:dl1PrefShared                 none # per-shader L1 data cache config  {<nsets>:<bsize>:<assoc>,<rep>:<wr>:<alloc>:<wr_alloc>,<mshr>:<N>:<merge>,<mq> | none}
-gmem_skip_L1D                          1 # global memory access skip L1D cache (implements -Xptxas -dlcm=cg, default=no skip)
-gpgpu_perfect_mem                      0 # enable perfect memory mode (no cache miss)
-n_regfile_gating_group                    4 # group of lanes that should be read/written together)
-gpgpu_clock_gated_reg_file                    0 # enable clock gated reg file for power calculations
-gpgpu_clock_gated_lanes                    0 # enable clock gated lanes for power calculations
-gpgpu_shader_registers                65536 # Number of registers per shader core. Limits number of concurrent CTAs. (default 8192)
-gpgpu_shader_cta                      32 # Maximum number of concurrent CTAs in shader (default 8)
-gpgpu_num_cta_barriers                   16 # Maximum number of named barriers per CTA (default 16)
-gpgpu_n_clusters                      28 # number of processing clusters
-gpgpu_n_cores_per_cluster                    1 # number of simd cores per cluster
-gpgpu_n_cluster_ejection_buffer_size                    8 # number of packets in ejection buffer
-gpgpu_n_ldst_response_buffer_size                    2 # number of response packets in ld/st unit ejection buffer
-gpgpu_shmem_size                   16384 # Size of shared memory per shader core (default 16kB)
-gpgpu_shmem_size                   98304 # Size of shared memory per shader core (default 16kB)
-gpgpu_shmem_size_PrefL1                16384 # Size of shared memory per shader core (default 16kB)
-gpgpu_shmem_size_PrefShared                16384 # Size of shared memory per shader core (default 16kB)
-gpgpu_shmem_num_banks                   32 # Number of banks in the shared memory in each shader core (default 16)
-gpgpu_shmem_limited_broadcast                    0 # Limit shared memory to do one broadcast per cycle (default on)
-gpgpu_shmem_warp_parts                    1 # Number of portions a warp is divided into for shared memory bank conflict check 
-gpgpu_warpdistro_shader                   -1 # Specify which shader core to collect the warp size distribution from
-gpgpu_warp_issue_shader                    0 # Specify which shader core to collect the warp issue distribution from
-gpgpu_local_mem_map                    1 # Mapping from local memory space address to simulated GPU physical address space (default = enabled)
-gpgpu_num_reg_banks                   32 # Number of register banks (default = 8)
-gpgpu_reg_bank_use_warp_id                    0 # Use warp ID in mapping registers to banks (default = off)
-gpgpu_operand_collector_num_units_sp                   20 # number of collector units (default = 4)
-gpgpu_operand_collector_num_units_sfu                    4 # number of collector units (default = 4)
-gpgpu_operand_collector_num_units_mem                    8 # number of collector units (default = 2)
-gpgpu_operand_collector_num_units_gen                    0 # number of collector units (default = 0)
-gpgpu_operand_collector_num_in_ports_sp                    4 # number of collector unit in ports (default = 1)
-gpgpu_operand_collector_num_in_ports_sfu                    1 # number of collector unit in ports (default = 1)
-gpgpu_operand_collector_num_in_ports_mem                    1 # number of collector unit in ports (default = 1)
-gpgpu_operand_collector_num_in_ports_gen                    0 # number of collector unit in ports (default = 0)
-gpgpu_operand_collector_num_out_ports_sp                    4 # number of collector unit in ports (default = 1)
-gpgpu_operand_collector_num_out_ports_sfu                    1 # number of collector unit in ports (default = 1)
-gpgpu_operand_collector_num_out_ports_mem                    1 # number of collector unit in ports (default = 1)
-gpgpu_operand_collector_num_out_ports_gen                    0 # number of collector unit in ports (default = 0)
-gpgpu_coalesce_arch                   13 # Coalescing arch (default = 13, anything else is off for now)
-gpgpu_num_sched_per_core                    2 # Number of warp schedulers per core
-gpgpu_max_insn_issue_per_warp                    2 # Max number of instructions that can be issued per warp in one cycle by scheduler
-gpgpu_simt_core_sim_order                    1 # Select the simulation order of cores in a cluster (0=Fix, 1=Round-Robin)
-gpgpu_pipeline_widths        4,1,1,4,1,1,6 # Pipeline widths ID_OC_SP,ID_OC_SFU,ID_OC_MEM,OC_EX_SP,OC_EX_SFU,OC_EX_MEM,EX_WB
-gpgpu_num_sp_units                     4 # Number of SP units (default=1)
-gpgpu_num_sfu_units                    1 # Number of SF units (default=1)
-gpgpu_num_mem_units                    1 # Number if ldst units (default=1) WARNING: not hooked up to anything
-gpgpu_scheduler                      gto # Scheduler configuration: < lrr | gto | two_level_active > If two_level_active:<num_active_warps>:<inner_prioritization>:<outer_prioritization>For complete list of prioritization values see shader.h enum scheduler_prioritization_typeDefault: gto
-gpgpu_concurrent_kernel_sm                    0 # Support concurrent kernels on a SM (default = disabled)
-tlb_size                            4096 # Number of tlb entries per SM.
-gpgpu_dram_scheduler                    1 # 0 = fifo, 1 = FR-FCFS (defaul)
-gpgpu_dram_partition_queues              8:8:8:8 # i2$:$2d:d2$:$2i
-l2_ideal                               0 # Use a ideal L2 cache that always hit
-gpgpu_cache:dl2     64:128:16,L:B:m:W:L,A:1024:1024,4:0,32 # unified banked L2 data cache config  {<nsets>:<bsize>:<assoc>,<rep>:<wr>:<alloc>:<wr_alloc>,<mshr>:<N>:<merge>,<mq>}
-gpgpu_cache:dl2_texture_only                    0 # L2 cache used for texture only
-gpgpu_n_mem                           11 # number of memory modules (e.g. memory controllers) in gpu
-gpgpu_n_sub_partition_per_mchannel                    2 # number of memory subpartition in each memory module
-gpgpu_n_mem_per_ctrlr                    1 # number of memory chips per memory controller
-gpgpu_memlatency_stat                   14 # track and display latency statistics 0x2 enables MC, 0x4 enables queue logs
-gpgpu_frfcfs_dram_sched_queue_size                   64 # 0 = unlimited (default); # entries per chip
-gpgpu_dram_return_queue_size                  116 # 0 = unlimited (default); # entries per chip
-gpgpu_dram_buswidth                    4 # default = 4 bytes (8 bytes per cycle at DDR)
-gpgpu_dram_burst_length                    8 # Burst length of each DRAM request (default = 4 data bus cycle)
-dram_data_command_freq_ratio                    4 # Frequency ratio between DRAM data bus and command bus (default = 2 times, i.e. DDR)
-gpgpu_dram_timing_opt nbk=16:CCD=2:RRD=6:RCD=12:RAS=28:RP=12:RC=40: CL=12:WL=4:CDLR=5:WR=12:nbkgrp=1:CCDL=0:RTPL=0 # DRAM timing parameters = {nbk:tCCD:tRRD:tRCD:tRAS:tRP:tRC:CL:WL:tCDLR:tWR:nbkgrp:tCCDL:tRTPL}
-rop_latency                          120 # ROP queue latency (default 85)
-dram_latency                         100 # DRAM latency (default 30)
-gpgpu_mem_addr_mapping dramid@8;00000000.00000000.00000000.00000000.0000RRRR.RRRRRRRR.RBBBCCCC.BCCSSSSS # mapping memory address to dram model {dramid@<start bit>;<memory address map>}
-gpgpu_mem_addr_test                    0 # run sweep test to check address mapping for aliased address
-gpgpu_mem_address_mask                    1 # 0 = old addressing mask, 1 = new addressing mask, 2 = new add. mask + flipped bank sel and chip sel bits
-gpuwattch_xml_file  gpuwattch_geforcegtx1080ti.xml # GPUWattch XML file
-power_simulation_enabled                    1 # Turn on power simulator (1=On, 0=Off)
-power_per_cycle_dump                    0 # Dump detailed power output each cycle
-power_trace_enabled                    0 # produce a file for the power trace (1=On, 0=Off)
-power_trace_zlevel                     6 # Compression level of the power trace output log (0=no comp, 9=highest)
-steady_power_levels_enabled                    0 # produce a file for the steady power levels (1=On, 0=Off)
-steady_state_definition                  8:4 # allowed deviation:number of samples
-gpgpu_max_cycle                        0 # terminates gpu simulation early (0 = no limit)
-gpgpu_max_insn                         0 # terminates gpu simulation early (0 = no limit)
-gpgpu_max_cta                          0 # terminates gpu simulation early (0 = no limit)
-gpgpu_runtime_stat                   500 # display runtime statistics such as dram utilization {<freq>:<flag>}
-liveness_message_freq                    1 # Minimum number of seconds between simulation liveness messages (0 = always print)
-gpgpu_flush_l1_cache                    0 # Flush L1 cache at the end of each kernel call
-gpgpu_flush_l2_cache                    0 # Flush L2 cache at the end of each kernel call
-gpgpu_deadlock_detect                    0 # Stop the simulation at deadlock (1=on (default), 0=off)
-gpgpu_ptx_instruction_classification                    0 # if enabled will classify ptx instruction types per kernel (Max 255 kernels now)
-gpgpu_ptx_sim_mode                     0 # Select between Performance (default) or Functional simulation (1)
-gpgpu_clock_domains 1481.0:2962.0:1481.0:2750.0 # Clock Domain Frequencies in MhZ {<Core Clock>:<ICNT Clock>:<L2 Clock>:<DRAM Clock>}
-gpgpu_max_concurrent_kernel                    8 # maximum kernels that can run concurrently on GPU
-gpgpu_cflog_interval                    0 # Interval between each snapshot in control flow logger
-visualizer_enabled                     0 # Turn on visualizer output (1=On, 0=Off)
-visualizer_outputfile                 NULL # Specifies the output log file for visualizer
-visualizer_zlevel                      6 # Compression level of the visualizer output log (0=no comp, 9=highest)
-trace_enabled                          0 # Turn on traces
-trace_components                    none # comma seperated list of traces to enable. Complete list found in trace_streams.tup. Default none
-trace_sampling_core                    0 # The core which is printed using CORE_DPRINTF. Default 0
-trace_sampling_memory_partition                   -1 # The memory partition which is printed using MEMPART_DPRINTF. Default -1 (i.e. all)
-gddr_size                            1GB # Size of GDDR in MB/GB.(GLOBAL_HEAP_START, GLOBAL_HEAP_START + gddr_size) would be used for unmanged memory, (GLOBAL_HEAP_START + gddr_size, GLOBAL_HEAP_START + gddr_size*2) would be used for managed memory. 
-page_table_walk_latency                  100 # Average page table walk latency (in core cycle).
-eviction_policy                        0 # Select page eviction policy
-invalidate_clean                       0 # Should directly invalidate clean pages
-reserve_accessed_page_percent                    0 # Percentage of accessed pages reserved from eviction in hope that they will be accessed in next iteration.
-percentage_of_free_page_buffer                    0 # Percentage of free page buffer to trigger the page eviction.
-page_size                            4KB # GDDR page size, only 4KB/2MB avaliable.
-pcie_bandwidth                  16.0GB/s # PCI-e bandwidth per direction, in GB/s.
-enable_dma                             0 # Enable direct access to CPU memory
-multiply_dma_penalty                    2 # Oversubscription Multiplicative Penalty Factor for Adaptive DMA
-migrate_threshold                      8 # Access counter threshold for migrating the page from cpu to gpu
-sim_prof_enable                        1 # Enable gpgpu-sim profiler
-hardware_prefetch                      2 # Select gpgpu-sim hardware prefetcher
-hwprefetch_oversub                     1 # Select gpgpu-sim hardware prefetcher under over-subscription
-page_fault_latency                 66645 # Average fault latency (in core cycle).
-enable_accurate_simulation                    0 # Enable page fault functional simulation.
-enable_ptx_file_line_stats                    1 # Turn on PTX source line statistic profiling. (1 = On)
-ptx_line_stats_filename gpgpu_inst_stats.txt # Output file for PTX source line statistics.
-gpgpu_kernel_launch_latency               222150 # Kernel launch latency in cycles. Default: 0
-gpgpu_cdp_enabled                      0 # Turn on CDP
-save_embedded_ptx                      0 # saves ptx files embedded in binary as <n>.ptx
-keep                                   0 # keep intermediate files created by GPGPU-Sim when interfacing with external programs
-gpgpu_ptx_save_converted_ptxplus                    0 # Saved converted ptxplus to a file
-ptx_opcode_latency_int         4,13,4,5,145 # Opcode latencies for integers <ADD,MAX,MUL,MAD,DIV>Default 1,1,19,25,145
-ptx_opcode_latency_fp          4,13,4,5,39 # Opcode latencies for single precision floating points <ADD,MAX,MUL,MAD,DIV>Default 1,1,1,1,30
-ptx_opcode_latency_dp         8,19,8,8,330 # Opcode latencies for double precision floating points <ADD,MAX,MUL,MAD,DIV>Default 8,8,8,8,335
-ptx_opcode_initiation_int            1,2,2,2,8 # Opcode initiation intervals for integers <ADD,MAX,MUL,MAD,DIV>Default 1,1,4,4,32
-ptx_opcode_initiation_fp            1,2,1,1,4 # Opcode initiation intervals for single precision floating points <ADD,MAX,MUL,MAD,DIV>Default 1,1,1,1,5
-ptx_opcode_initiation_dp          1,2,1,1,130 # Opcode initiation intervals for double precision floating points <ADD,MAX,MUL,MAD,DIV>Default 8,8,8,8,130
-cdp_latency         7200,8000,100,12000,1600 # CDP API latency <cudaStreamCreateWithFlags, cudaGetParameterBufferV2_init_perWarp, cudaGetParameterBufferV2_perKernel, cudaLaunchDeviceV2_init_perWarp, cudaLaunchDevicV2_perKernel>Default 7200,8000,100,12000,1600
DRAM Timing Options:
nbk                                    16 # number of banks
CCD                                     2 # column to column delay
RRD                                     6 # minimal delay between activation of rows in different banks
RCD                                    12 # row to column delay
RAS                                    28 # time needed to activate row
RP                                     12 # time needed to precharge (deactivate) row
RC                                     40 # row cycle time
CDLR                                    5 # switching from write to read (changes tWTR)
WR                                     12 # last data-in to row precharge
CL                                     12 # CAS latency
WL                                      4 # Write latency
nbkgrp                                  1 # number of bank groups
CCDL                                    0 # column to column delay between accesses to different bank groups
RTPL                                    0 # read to precharge delay between accesses to different bank groups
Total number of memory sub partition = 22
addr_dec_mask[CHIP]  = 0000000000000000 	high:64 low:0
addr_dec_mask[BK]    = 0000000000007080 	high:15 low:7
addr_dec_mask[ROW]   = 000000000fff8000 	high:28 low:15
addr_dec_mask[COL]   = 0000000000000f7f 	high:12 low:0
addr_dec_mask[BURST] = 000000000000001f 	high:5 low:0
sub_partition_id_mask = 0000000000000080
GPGPU-Sim uArch: clock freqs: 1481000000.000000:2962000000.000000:1481000000.000000:2750000000.000000
GPGPU-Sim uArch: clock periods: 0.00000000067521944632:0.00000000033760972316:0.00000000067521944632:0.00000000036363636364
*** Initializing Memory Statistics ***
GPGPU-Sim uArch: interconnect node map (shaderID+MemID to icntID)
GPGPU-Sim uArch: Memory nodes ID start from index: 28
GPGPU-Sim uArch:    0   1   2   3   4   5   6
GPGPU-Sim uArch:    7   8   9  10  11  12  13
GPGPU-Sim uArch:   14  15  16  17  18  19  20
GPGPU-Sim uArch:   21  22  23  24  25  26  27
GPGPU-Sim uArch:   28  29  30  31  32  33  34
GPGPU-Sim uArch:   35  36  37  38  39  40  41
GPGPU-Sim uArch:   42  43  44  45  46  47  48
GPGPU-Sim uArch:   49
GPGPU-Sim uArch: interconnect node reverse map (icntID to shaderID+MemID)
GPGPU-Sim uArch: Memory nodes start from ID: 28
GPGPU-Sim uArch:    0   1   2   3   4   5   6
GPGPU-Sim uArch:    7   8   9  10  11  12  13
GPGPU-Sim uArch:   14  15  16  17  18  19  20
GPGPU-Sim uArch:   21  22  23  24  25  26  27
GPGPU-Sim uArch:   28  29  30  31  32  33  34
GPGPU-Sim uArch:   35  36  37  38  39  40  41
GPGPU-Sim uArch:   42  43  44  45  46  47  48
GPGPU-Sim uArch:   49
fd0e239e19bce071704461e9b41cb476  /root/gpgpu-sim_UVMSmart/benchmarks/Managed/bfs/bfs
GPGPU-Sim uArch: performance model initialization complete.
GPGPU-Sim PTX: __cudaRegisterFatBinary, fat_cubin_handle = 1, filename=default
self exe links to: /root/gpgpu-sim_UVMSmart/benchmarks/Managed/bfs/bfs
Running md5sum using "md5sum /root/gpgpu-sim_UVMSmart/benchmarks/Managed/bfs/bfs "
Parsing file _cuobjdump_complete_output_I60ZbP
######### cuobjdump parser ########
## Adding new section ELF
Adding arch: sm_20
Adding identifier: default
## Adding new section ELF
Adding arch: sm_20
Adding identifier: default
## Adding new section PTX
Adding ptx filename: _cuobjdump_1.ptx
Adding arch: sm_20
Adding identifier: default
Done parsing!!!
GPGPU-Sim PTX: __cudaRegisterFunction _Z7Kernel2PbS_S_S_i : hostFun 0x0x401649, fat_cubin_handle = 1
GPGPU-Sim PTX: instruction assembly for function '_Z6KernelP4NodePiPbS2_S2_S1_i'...   done.
GPGPU-Sim PTX: finding reconvergence points for '_Z6KernelP4NodePiPbS2_S2_S1_i'...
GPGPU-Sim PTX: Finding dominators for '_Z6KernelP4NodePiPbS2_S2_S1_i'...
GPGPU-Sim PTX: Finding immediate dominators for '_Z6KernelP4NodePiPbS2_S2_S1_i'...
GPGPU-Sim PTX: Finding postdominators for '_Z6KernelP4NodePiPbS2_S2_S1_i'...
GPGPU-Sim PTX: Finding immediate postdominators for '_Z6KernelP4NodePiPbS2_S2_S1_i'...
GPGPU-Sim PTX: pre-decoding instructions for '_Z6KernelP4NodePiPbS2_S2_S1_i'...
GPGPU-Sim PTX: reconvergence points for _Z6KernelP4NodePiPbS2_S2_S1_i...
GPGPU-Sim PTX:  1 (potential) branch divergence @  PC=0x060 (_1.ptx:42) @%p1 bra BB0_7;
GPGPU-Sim PTX:    immediate post dominator      @  PC=0x1e8 (_1.ptx:101) ret;
GPGPU-Sim PTX:  2 (potential) branch divergence @  PC=0x090 (_1.ptx:49) @%p2 bra BB0_7;
GPGPU-Sim PTX:    immediate post dominator      @  PC=0x1e8 (_1.ptx:101) ret;
GPGPU-Sim PTX:  3 (potential) branch divergence @  PC=0x0d8 (_1.ptx:59) @%p3 bra BB0_7;
GPGPU-Sim PTX:    immediate post dominator      @  PC=0x1e8 (_1.ptx:101) ret;
GPGPU-Sim PTX:  4 (potential) branch divergence @  PC=0x160 (_1.ptx:79) @%p4 bra BB0_6;
GPGPU-Sim PTX:    immediate post dominator      @  PC=0x1b8 (_1.ptx:93) mov.u32 %r24, %r25;
GPGPU-Sim PTX:  5 (potential) branch divergence @  PC=0x1e0 (_1.ptx:98) @%p5 bra BB0_4;
GPGPU-Sim PTX:    immediate post dominator      @  PC=0x1e8 (_1.ptx:101) ret;
GPGPU-Sim PTX: ... end of reconvergence points for _Z6KernelP4NodePiPbS2_S2_S1_i
GPGPU-Sim PTX: ... done pre-decoding instructions for '_Z6KernelP4NodePiPbS2_S2_S1_i'.
GPGPU-Sim PTX: instruction assembly for function '_Z7Kernel2PbS_S_S_i'...   done.
GPGPU-Sim PTX: finding reconvergence points for '_Z7Kernel2PbS_S_S_i'...
GPGPU-Sim PTX: Finding dominators for '_Z7Kernel2PbS_S_S_i'...
GPGPU-Sim PTX: Finding immediate dominators for '_Z7Kernel2PbS_S_S_i'...
GPGPU-Sim PTX: Finding postdominators for '_Z7Kernel2PbS_S_S_i'...
GPGPU-Sim PTX: Finding immediate postdominators for '_Z7Kernel2PbS_S_S_i'...
GPGPU-Sim PTX: pre-decoding instructions for '_Z7Kernel2PbS_S_S_i'...
GPGPU-Sim PTX: reconvergence points for _Z7Kernel2PbS_S_S_i...
GPGPU-Sim PTX:  1 (potential) branch divergence @  PC=0x240 (_1.ptx:129) @%p1 bra BB1_3;
GPGPU-Sim PTX:    immediate post dominator      @  PC=0x2d0 (_1.ptx:151) ret;
GPGPU-Sim PTX:  2 (potential) branch divergence @  PC=0x270 (_1.ptx:136) @%p2 bra BB1_3;
GPGPU-Sim PTX:    immediate post dominator      @  PC=0x2d0 (_1.ptx:151) ret;
GPGPU-Sim PTX: ... end of reconvergence points for _Z7Kernel2PbS_S_S_i
GPGPU-Sim PTX: ... done pre-decoding instructions for '_Z7Kernel2PbS_S_S_i'.
GPGPU-Sim PTX: finished parsing EMBEDDED .ptx file _1.ptx
Adding _cuobjdump_1.ptx with cubin handle 1
GPGPU-Sim PTX: extracting embedded .ptx to temporary file "_ptx_vO58Ik"
Running: cat _ptx_vO58Ik | sed 's/.version 1.5/.version 1.4/' | sed 's/, texmode_independent//' | sed 's/\(\.extern \.const\[1\] .b8 \w\+\)\[\]/\1\[1\]/' | sed 's/const\[.\]/const\[0\]/g' > _ptx2_46TigQ
GPGPU-Sim PTX: generating ptxinfo using "$CUDA_INSTALL_PATH/bin/ptxas --gpu-name=sm_20 -v _ptx2_46TigQ --output-file  /dev/null 2> _ptx_vO58Ikinfo"
GPGPU-Sim PTX: Kernel '_Z7Kernel2PbS_S_S_i' : regs=12, lmem=0, smem=0, cmem=68
GPGPU-Sim PTX: Kernel '_Z6KernelP4NodePiPbS2_S2_S1_i' : regs=15, lmem=0, smem=0, cmem=84
GPGPU-Sim PTX: removing ptxinfo using "rm -f _ptx_vO58Ik _ptx2_46TigQ _ptx_vO58Ikinfo"
GPGPU-Sim PTX: loading globals with explicit initializers... 
GPGPU-Sim PTX: finished loading globals (0 bytes total).
GPGPU-Sim PTX: loading constants with explicit initializers...  done.
GPGPU-Sim PTX: __cudaRegisterFunction _Z6KernelP4NodePiPbS2_S2_S1_i : hostFun 0x0x401519, fat_cubin_handle = 1
Reading File
Read File
Copied Everything to GPU memory
Start traversing the tree

GPGPU-Sim PTX: cudaLaunch for 0x0x401519 (mode=performance simulation) on stream 0
GPGPU-Sim PTX: pushing kernel '_Z6KernelP4NodePiPbS2_S2_S1_i' to stream 0, gridDim= (511,1,1) blockDim = (512,1,1) 
GPGPU-Sim uArch: Shader 1 bind to kernel 1 '_Z6KernelP4NodePiPbS2_S2_S1_i'
GPGPU-Sim uArch: CTA/core = 4, limited by: threads
GPGPU-Sim uArch: Shader 2 bind to kernel 1 '_Z6KernelP4NodePiPbS2_S2_S1_i'
GPGPU-Sim uArch: Shader 3 bind to kernel 1 '_Z6KernelP4NodePiPbS2_S2_S1_i'
GPGPU-Sim uArch: Shader 4 bind to kernel 1 '_Z6KernelP4NodePiPbS2_S2_S1_i'
GPGPU-Sim uArch: Shader 5 bind to kernel 1 '_Z6KernelP4NodePiPbS2_S2_S1_i'
GPGPU-Sim uArch: Shader 6 bind to kernel 1 '_Z6KernelP4NodePiPbS2_S2_S1_i'
GPGPU-Sim uArch: Shader 7 bind to kernel 1 '_Z6KernelP4NodePiPbS2_S2_S1_i'
GPGPU-Sim uArch: Shader 8 bind to kernel 1 '_Z6KernelP4NodePiPbS2_S2_S1_i'
GPGPU-Sim uArch: Shader 9 bind to kernel 1 '_Z6KernelP4NodePiPbS2_S2_S1_i'
GPGPU-Sim uArch: Shader 10 bind to kernel 1 '_Z6KernelP4NodePiPbS2_S2_S1_i'
GPGPU-Sim uArch: Shader 11 bind to kernel 1 '_Z6KernelP4NodePiPbS2_S2_S1_i'
GPGPU-Sim uArch: Shader 12 bind to kernel 1 '_Z6KernelP4NodePiPbS2_S2_S1_i'
GPGPU-Sim uArch: Shader 13 bind to kernel 1 '_Z6KernelP4NodePiPbS2_S2_S1_i'
GPGPU-Sim uArch: Shader 14 bind to kernel 1 '_Z6KernelP4NodePiPbS2_S2_S1_i'
GPGPU-Sim uArch: Shader 15 bind to kernel 1 '_Z6KernelP4NodePiPbS2_S2_S1_i'
GPGPU-Sim uArch: Shader 16 bind to kernel 1 '_Z6KernelP4NodePiPbS2_S2_S1_i'
GPGPU-Sim uArch: Shader 17 bind to kernel 1 '_Z6KernelP4NodePiPbS2_S2_S1_i'
GPGPU-Sim uArch: Shader 18 bind to kernel 1 '_Z6KernelP4NodePiPbS2_S2_S1_i'
GPGPU-Sim uArch: Shader 19 bind to kernel 1 '_Z6KernelP4NodePiPbS2_S2_S1_i'
GPGPU-Sim uArch: Shader 20 bind to kernel 1 '_Z6KernelP4NodePiPbS2_S2_S1_i'
GPGPU-Sim uArch: Shader 21 bind to kernel 1 '_Z6KernelP4NodePiPbS2_S2_S1_i'
GPGPU-Sim uArch: Shader 22 bind to kernel 1 '_Z6KernelP4NodePiPbS2_S2_S1_i'
GPGPU-Sim uArch: Shader 23 bind to kernel 1 '_Z6KernelP4NodePiPbS2_S2_S1_i'
GPGPU-Sim uArch: Shader 24 bind to kernel 1 '_Z6KernelP4NodePiPbS2_S2_S1_i'
GPGPU-Sim uArch: Shader 25 bind to kernel 1 '_Z6KernelP4NodePiPbS2_S2_S1_i'
GPGPU-Sim uArch: Shader 26 bind to kernel 1 '_Z6KernelP4NodePiPbS2_S2_S1_i'
GPGPU-Sim uArch: Shader 27 bind to kernel 1 '_Z6KernelP4NodePiPbS2_S2_S1_i'
GPGPU-Sim uArch: Shader 0 bind to kernel 1 '_Z6KernelP4NodePiPbS2_S2_S1_i'
GPGPU-Sim uArch: Shader 1 bind to kernel 1 '_Z6KernelP4NodePiPbS2_S2_S1_i'
GPGPU-Sim uArch: Shader 2 bind to kernel 1 '_Z6KernelP4NodePiPbS2_S2_S1_i'
GPGPU-Sim uArch: Shader 3 bind to kernel 1 '_Z6KernelP4NodePiPbS2_S2_S1_i'
GPGPU-Sim uArch: Shader 4 bind to kernel 1 '_Z6KernelP4NodePiPbS2_S2_S1_i'
GPGPU-Sim uArch: Shader 5 bind to kernel 1 '_Z6KernelP4NodePiPbS2_S2_S1_i'
GPGPU-Sim uArch: Shader 6 bind to kernel 1 '_Z6KernelP4NodePiPbS2_S2_S1_i'
GPGPU-Sim uArch: Shader 7 bind to kernel 1 '_Z6KernelP4NodePiPbS2_S2_S1_i'
GPGPU-Sim uArch: Shader 8 bind to kernel 1 '_Z6KernelP4NodePiPbS2_S2_S1_i'
GPGPU-Sim uArch: Shader 9 bind to kernel 1 '_Z6KernelP4NodePiPbS2_S2_S1_i'
GPGPU-Sim uArch: Shader 10 bind to kernel 1 '_Z6KernelP4NodePiPbS2_S2_S1_i'
GPGPU-Sim uArch: Shader 11 bind to kernel 1 '_Z6KernelP4NodePiPbS2_S2_S1_i'
GPGPU-Sim uArch: Shader 12 bind to kernel 1 '_Z6KernelP4NodePiPbS2_S2_S1_i'
GPGPU-Sim uArch: Shader 13 bind to kernel 1 '_Z6KernelP4NodePiPbS2_S2_S1_i'
GPGPU-Sim uArch: Shader 14 bind to kernel 1 '_Z6KernelP4NodePiPbS2_S2_S1_i'
GPGPU-Sim uArch: Shader 15 bind to kernel 1 '_Z6KernelP4NodePiPbS2_S2_S1_i'
GPGPU-Sim uArch: Shader 16 bind to kernel 1 '_Z6KernelP4NodePiPbS2_S2_S1_i'
GPGPU-Sim uArch: Shader 17 bind to kernel 1 '_Z6KernelP4NodePiPbS2_S2_S1_i'
GPGPU-Sim uArch: Shader 18 bind to kernel 1 '_Z6KernelP4NodePiPbS2_S2_S1_i'
GPGPU-Sim uArch: Shader 19 bind to kernel 1 '_Z6KernelP4NodePiPbS2_S2_S1_i'
GPGPU-Sim uArch: Shader 20 bind to kernel 1 '_Z6KernelP4NodePiPbS2_S2_S1_i'
GPGPU-Sim uArch: Shader 21 bind to kernel 1 '_Z6KernelP4NodePiPbS2_S2_S1_i'
GPGPU-Sim uArch: Shader 22 bind to kernel 1 '_Z6KernelP4NodePiPbS2_S2_S1_i'
GPGPU-Sim uArch: Shader 23 bind to kernel 1 '_Z6KernelP4NodePiPbS2_S2_S1_i'
GPGPU-Sim uArch: Shader 24 bind to kernel 1 '_Z6KernelP4NodePiPbS2_S2_S1_i'
GPGPU-Sim uArch: Shader 25 bind to kernel 1 '_Z6KernelP4NodePiPbS2_S2_S1_i'
GPGPU-Sim uArch: Shader 26 bind to kernel 1 '_Z6KernelP4NodePiPbS2_S2_S1_i'
GPGPU-Sim uArch: Shader 27 bind to kernel 1 '_Z6KernelP4NodePiPbS2_S2_S1_i'
GPGPU-Sim uArch: Shader 0 bind to kernel 1 '_Z6KernelP4NodePiPbS2_S2_S1_i'
Destroy streams for kernel 1: size 0
kernel_name = _Z6KernelP4NodePiPbS2_S2_S1_i 
kernel_launch_uid = 1 
gpu_sim_cycle = 174611
gpu_sim_insn = 4970238
gpu_ipc =      28.4646
gpu_tot_sim_cycle = 399297
gpu_tot_sim_insn = 4970238
gpu_tot_ipc =      12.4475
gpu_tot_issued_cta = 511
max_total_param_size = 0
gpu_stall_dramfull = 101
gpu_stall_icnt2sh    = 7702
partiton_reqs_in_parallel = 3841341
partiton_reqs_in_parallel_total    = 0
partiton_level_parallism =      21.9994
partiton_level_parallism_total  =       9.6203
partiton_reqs_in_parallel_util = 3841341
partiton_reqs_in_parallel_util_total    = 0
gpu_sim_cycle_parition_util = 174611
gpu_tot_sim_cycle_parition_util    = 0
partiton_level_parallism_util =      21.9994
partiton_level_parallism_util_total  =      21.9994
partiton_replys_in_parallel = 8336
partiton_replys_in_parallel_total    = 0
L2_BW  =       4.5250 GB/Sec
L2_BW_total  =       1.9788 GB/Sec
gpu_total_sim_rate=31657

========= Core cache stats =========
L1I_cache:
	L1I_total_cache_accesses = 90013
	L1I_total_cache_misses = 2778
	L1I_total_cache_miss_rate = 0.0309
	L1I_total_cache_pending_hits = 0
	L1I_total_cache_reservation_fails = 6846
L1D_cache:
	L1D_cache_core[0]: Access = 0, Miss = 0, Miss_rate = -nan, Pending_hits = 0, Reservation_fails = 0
	L1D_cache_core[1]: Access = 0, Miss = 0, Miss_rate = -nan, Pending_hits = 0, Reservation_fails = 0
	L1D_cache_core[2]: Access = 0, Miss = 0, Miss_rate = -nan, Pending_hits = 0, Reservation_fails = 0
	L1D_cache_core[3]: Access = 0, Miss = 0, Miss_rate = -nan, Pending_hits = 0, Reservation_fails = 0
	L1D_cache_core[4]: Access = 0, Miss = 0, Miss_rate = -nan, Pending_hits = 0, Reservation_fails = 0
	L1D_cache_core[5]: Access = 0, Miss = 0, Miss_rate = -nan, Pending_hits = 0, Reservation_fails = 0
	L1D_cache_core[6]: Access = 0, Miss = 0, Miss_rate = -nan, Pending_hits = 0, Reservation_fails = 0
	L1D_cache_core[7]: Access = 0, Miss = 0, Miss_rate = -nan, Pending_hits = 0, Reservation_fails = 0
	L1D_cache_core[8]: Access = 0, Miss = 0, Miss_rate = -nan, Pending_hits = 0, Reservation_fails = 0
	L1D_cache_core[9]: Access = 0, Miss = 0, Miss_rate = -nan, Pending_hits = 0, Reservation_fails = 0
	L1D_cache_core[10]: Access = 0, Miss = 0, Miss_rate = -nan, Pending_hits = 0, Reservation_fails = 0
	L1D_cache_core[11]: Access = 0, Miss = 0, Miss_rate = -nan, Pending_hits = 0, Reservation_fails = 0
	L1D_cache_core[12]: Access = 0, Miss = 0, Miss_rate = -nan, Pending_hits = 0, Reservation_fails = 0
	L1D_cache_core[13]: Access = 0, Miss = 0, Miss_rate = -nan, Pending_hits = 0, Reservation_fails = 0
	L1D_cache_core[14]: Access = 0, Miss = 0, Miss_rate = -nan, Pending_hits = 0, Reservation_fails = 0
	L1D_cache_core[15]: Access = 0, Miss = 0, Miss_rate = -nan, Pending_hits = 0, Reservation_fails = 0
	L1D_cache_core[16]: Access = 0, Miss = 0, Miss_rate = -nan, Pending_hits = 0, Reservation_fails = 0
	L1D_cache_core[17]: Access = 0, Miss = 0, Miss_rate = -nan, Pending_hits = 0, Reservation_fails = 0
	L1D_cache_core[18]: Access = 0, Miss = 0, Miss_rate = -nan, Pending_hits = 0, Reservation_fails = 0
	L1D_cache_core[19]: Access = 0, Miss = 0, Miss_rate = -nan, Pending_hits = 0, Reservation_fails = 0
	L1D_cache_core[20]: Access = 0, Miss = 0, Miss_rate = -nan, Pending_hits = 0, Reservation_fails = 0
	L1D_cache_core[21]: Access = 0, Miss = 0, Miss_rate = -nan, Pending_hits = 0, Reservation_fails = 0
	L1D_cache_core[22]: Access = 0, Miss = 0, Miss_rate = -nan, Pending_hits = 0, Reservation_fails = 0
	L1D_cache_core[23]: Access = 0, Miss = 0, Miss_rate = -nan, Pending_hits = 0, Reservation_fails = 0
	L1D_cache_core[24]: Access = 0, Miss = 0, Miss_rate = -nan, Pending_hits = 0, Reservation_fails = 0
	L1D_cache_core[25]: Access = 0, Miss = 0, Miss_rate = -nan, Pending_hits = 0, Reservation_fails = 0
	L1D_cache_core[26]: Access = 0, Miss = 0, Miss_rate = -nan, Pending_hits = 0, Reservation_fails = 0
	L1D_cache_core[27]: Access = 0, Miss = 0, Miss_rate = -nan, Pending_hits = 0, Reservation_fails = 0
	L1D_total_cache_accesses = 0
	L1D_total_cache_misses = 0
	L1D_total_cache_pending_hits = 0
	L1D_total_cache_reservation_fails = 0
	L1D_cache_data_port_util = 0.000
	L1D_cache_fill_port_util = 0.000
L1C_cache:
	L1C_total_cache_accesses = 57232
	L1C_total_cache_misses = 1792
	L1C_total_cache_miss_rate = 0.0313
	L1C_total_cache_pending_hits = 0
	L1C_total_cache_reservation_fails = 4886
L1T_cache:
	L1T_total_cache_accesses = 0
	L1T_total_cache_misses = 0
	L1T_total_cache_pending_hits = 0
	L1T_total_cache_reservation_fails = 0

Total_core_cache_stats:
	Total_core_cache_stats_breakdown[GLOBAL_ACC_R][HIT] = 0
	Total_core_cache_stats_breakdown[GLOBAL_ACC_R][HIT_RESERVED] = 0
	Total_core_cache_stats_breakdown[GLOBAL_ACC_R][MISS] = 0
	Total_core_cache_stats_breakdown[GLOBAL_ACC_R][RESERVATION_FAIL] = 0
	Total_core_cache_stats_breakdown[LOCAL_ACC_R][HIT] = 0
	Total_core_cache_stats_breakdown[LOCAL_ACC_R][HIT_RESERVED] = 0
	Total_core_cache_stats_breakdown[LOCAL_ACC_R][MISS] = 0
	Total_core_cache_stats_breakdown[LOCAL_ACC_R][RESERVATION_FAIL] = 0
	Total_core_cache_stats_breakdown[CONST_ACC_R][HIT] = 55440
	Total_core_cache_stats_breakdown[CONST_ACC_R][HIT_RESERVED] = 0
	Total_core_cache_stats_breakdown[CONST_ACC_R][MISS] = 1792
	Total_core_cache_stats_breakdown[CONST_ACC_R][RESERVATION_FAIL] = 4886
	Total_core_cache_stats_breakdown[TEXTURE_ACC_R][HIT] = 0
	Total_core_cache_stats_breakdown[TEXTURE_ACC_R][HIT_RESERVED] = 0
	Total_core_cache_stats_breakdown[TEXTURE_ACC_R][MISS] = 0
	Total_core_cache_stats_breakdown[TEXTURE_ACC_R][RESERVATION_FAIL] = 0
	Total_core_cache_stats_breakdown[GLOBAL_ACC_W][HIT] = 0
	Total_core_cache_stats_breakdown[GLOBAL_ACC_W][HIT_RESERVED] = 0
	Total_core_cache_stats_breakdown[GLOBAL_ACC_W][MISS] = 0
	Total_core_cache_stats_breakdown[GLOBAL_ACC_W][RESERVATION_FAIL] = 0
	Total_core_cache_stats_breakdown[LOCAL_ACC_W][HIT] = 0
	Total_core_cache_stats_breakdown[LOCAL_ACC_W][HIT_RESERVED] = 0
	Total_core_cache_stats_breakdown[LOCAL_ACC_W][MISS] = 0
	Total_core_cache_stats_breakdown[LOCAL_ACC_W][RESERVATION_FAIL] = 0
	Total_core_cache_stats_breakdown[L1_WRBK_ACC][HIT] = 0
	Total_core_cache_stats_breakdown[L1_WRBK_ACC][HIT_RESERVED] = 0
	Total_core_cache_stats_breakdown[L1_WRBK_ACC][MISS] = 0
	Total_core_cache_stats_breakdown[L1_WRBK_ACC][RESERVATION_FAIL] = 0
	Total_core_cache_stats_breakdown[L2_WRBK_ACC][HIT] = 0
	Total_core_cache_stats_breakdown[L2_WRBK_ACC][HIT_RESERVED] = 0
	Total_core_cache_stats_breakdown[L2_WRBK_ACC][MISS] = 0
	Total_core_cache_stats_breakdown[L2_WRBK_ACC][RESERVATION_FAIL] = 0
	Total_core_cache_stats_breakdown[INST_ACC_R][HIT] = 87235
	Total_core_cache_stats_breakdown[INST_ACC_R][HIT_RESERVED] = 0
	Total_core_cache_stats_breakdown[INST_ACC_R][MISS] = 2778
	Total_core_cache_stats_breakdown[INST_ACC_R][RESERVATION_FAIL] = 6846
	Total_core_cache_stats_breakdown[L1_WR_ALLOC_R][HIT] = 0
	Total_core_cache_stats_breakdown[L1_WR_ALLOC_R][HIT_RESERVED] = 0
	Total_core_cache_stats_breakdown[L1_WR_ALLOC_R][MISS] = 0
	Total_core_cache_stats_breakdown[L1_WR_ALLOC_R][RESERVATION_FAIL] = 0
	Total_core_cache_stats_breakdown[L2_WR_ALLOC_R][HIT] = 0
	Total_core_cache_stats_breakdown[L2_WR_ALLOC_R][HIT_RESERVED] = 0
	Total_core_cache_stats_breakdown[L2_WR_ALLOC_R][MISS] = 0
	Total_core_cache_stats_breakdown[L2_WR_ALLOC_R][RESERVATION_FAIL] = 0
	Total_core_cache_stats_breakdown[CONST_ACC_R][TOTAL_ACCESS] = 57232
	Total_core_cache_stats_breakdown[INST_ACC_R][TOTAL_ACCESS] = 90013
Shader 0 warp_id issue ditsribution:
warp_id:
0, 1, 2, 3, 4, 5, 6, 7, 8, 9, 10, 11, 12, 13, 14, 15, 16, 17, 18, 19, 20, 21, 22, 23, 24, 25, 26, 27, 28, 29, 30, 31, 32, 33, 34, 35, 36, 37, 38, 39, 40, 41, 42, 43, 44, 45, 46, 47, 48, 49, 50, 51, 52, 53, 54, 55, 56, 57, 58, 59, 60, 61, 62, 63, 
distro:
115, 115, 114, 115, 114, 115, 114, 115, 115, 115, 115, 115, 115, 115, 115, 115, 115, 115, 115, 115, 115, 115, 115, 115, 115, 115, 115, 115, 115, 115, 115, 115, 115, 115, 115, 115, 115, 115, 115, 115, 115, 115, 115, 115, 115, 115, 115, 115, 92, 92, 92, 92, 92, 92, 92, 92, 92, 92, 92, 92, 92, 92, 92, 92, 
gpgpu_n_tot_thrd_icount = 5237440
gpgpu_n_tot_w_icount = 163670
gpgpu_n_stall_shd_mem = 5783
gpgpu_n_mem_read_local = 0
gpgpu_n_mem_write_local = 0
gpgpu_n_mem_read_global = 8208
gpgpu_n_mem_write_global = 15
gpgpu_n_mem_texture = 0
gpgpu_n_mem_const = 28
gpgpu_n_load_insn  = 261481
gpgpu_n_store_insn = 15
gpgpu_n_shmem_insn = 0
gpgpu_n_tex_insn = 0
gpgpu_n_const_mem_insn = 0
gpgpu_n_param_mem_insn = 1831424
gpgpu_n_shmem_bkconflict = 0
gpgpu_n_cache_bkconflict = 0
gpgpu_n_intrawarp_mshr_merge = 0
gpgpu_n_cmem_portconflict = 4886
gpgpu_stall_shd_mem[c_mem][bk_conf] = 4886
gpgpu_stall_shd_mem[c_mem][mshr_rc] = 0
gpgpu_stall_shd_mem[c_mem][icnt_rc] = 0
gpgpu_stall_shd_mem[c_mem][data_port_stall] = 0
gpgpu_stall_shd_mem[t_mem][mshr_rc] = 0
gpgpu_stall_shd_mem[t_mem][icnt_rc] = 0
gpgpu_stall_shd_mem[t_mem][data_port_stall] = 0
gpgpu_stall_shd_mem[s_mem][bk_conf] = 0
gpgpu_stall_shd_mem[gl_mem][bk_conf] = 0
gpgpu_stall_shd_mem[gl_mem][coal_stall] = 0
gpgpu_stall_shd_mem[gl_mem][data_port_stall] = 0
gpgpu_stall_shd_mem[g_mem_ld][mshr_rc] = 0
gpgpu_stall_shd_mem[g_mem_ld][icnt_rc] = 897
gpgpu_stall_shd_mem[g_mem_ld][wb_icnt_rc] = 0
gpgpu_stall_shd_mem[g_mem_ld][wb_rsrv_fail] = 0
gpgpu_stall_shd_mem[g_mem_st][mshr_rc] = 0
gpgpu_stall_shd_mem[g_mem_st][icnt_rc] = 0
gpgpu_stall_shd_mem[g_mem_st][wb_icnt_rc] = 0
gpgpu_stall_shd_mem[g_mem_st][wb_rsrv_fail] = 0
gpgpu_stall_shd_mem[l_mem_ld][mshr_rc] = 0
gpgpu_stall_shd_mem[l_mem_ld][icnt_rc] = 0
gpgpu_stall_shd_mem[l_mem_ld][wb_icnt_rc] = 0
gpgpu_stall_shd_mem[l_mem_ld][wb_rsrv_fail] = 0
gpgpu_stall_shd_mem[l_mem_st][mshr_rc] = 0
gpgpu_stall_shd_mem[l_mem_st][icnt_rc] = 0
gpgpu_stall_shd_mem[l_mem_ld][wb_icnt_rc] = 0
gpgpu_stall_shd_mem[l_mem_ld][wb_rsrv_fail] = 0
gpu_reg_bank_conflict_stalls = 0
Warp Occupancy Distribution:
Stall:34321	W0_Idle:7003657	W0_Scoreboard:2590310	W1:180	W2:0	W3:0	W4:6	W5:0	W6:0	W7:0	W8:0	W9:0	W10:0	W11:0	W12:0	W13:0	W14:0	W15:0	W16:0	W17:0	W18:0	W19:0	W20:0	W21:0	W22:0	W23:0	W24:0	W25:0	W26:0	W27:0	W28:0	W29:0	W30:0	W31:0	W32:163484
traffic_breakdown_coretomem[CONST_ACC_R] = 224 {8:28,}
traffic_breakdown_coretomem[GLOBAL_ACC_R] = 65664 {8:8208,}
traffic_breakdown_coretomem[GLOBAL_ACC_W] = 600 {40:15,}
traffic_breakdown_coretomem[INST_ACC_R] = 680 {8:85,}
traffic_breakdown_memtocore[CONST_ACC_R] = 2016 {72:28,}
traffic_breakdown_memtocore[GLOBAL_ACC_R] = 328320 {40:8208,}
traffic_breakdown_memtocore[GLOBAL_ACC_W] = 120 {8:15,}
traffic_breakdown_memtocore[INST_ACC_R] = 11560 {136:85,}
maxmrqlatency = 83 
maxdqlatency = 0 
maxmflatency = 32067 
averagemflatency = 7222 
max_icnt2mem_latency = 31815 
max_icnt2sh_latency = 360539 
mrq_lat_table:807 	161 	167 	279 	233 	386 	51 	0 	0 	0 	0 	0 	0 	0 	0 	0 	0 	0 	0 	0 	0 	0 	0 	0 	0 	0 	0 	0 	0 	0 	0 	0 	
dq_lat_table:0 	0 	0 	0 	0 	0 	0 	0 	0 	0 	0 	0 	0 	0 	0 	0 	0 	0 	0 	0 	0 	0 	0 	0 	0 	0 	0 	0 	0 	0 	0 	0 	
mf_lat_table:0 	0 	0 	0 	0 	0 	0 	508 	1712 	0 	0 	1152 	128 	4743 	8 	0 	0 	0 	0 	0 	0 	0 	0 	0 	0 	0 	0 	0 	0 	0 	0 	0 	
icnt2mem_lat_table:0 	0 	584 	23 	24 	0 	1674 	0 	0 	0 	0 	1152 	129 	4742 	8 	0 	0 	0 	0 	0 	0 	0 	0 	0 	
icnt2sh_lat_table:0 	0 	2945 	3363 	1888 	40 	0 	0 	0 	0 	0 	0 	0 	0 	0 	0 	0 	1 	14 	0 	0 	0 	0 	0 	
mf_lat_pw_table:0 	0 	0 	0 	0 	0 	0 	9 	3 	0 	0 	5 	4 	11 	5 	0 	0 	0 	0 	0 	0 	0 	0 	0 	0 	0 	0 	0 	0 	0 	0 	0 	
maximum concurrent accesses to same row:
dram[0]:         1         0         0         0         0         0         0         0         0        10         0         0         2         0         0         0 
dram[1]:         0         0         0         0         0         1         0         0         0         0        11         0         0         0         0         2 
dram[2]:         0         0         1         0         0         0         0         0         0        10         0         0         0         0         0         0 
dram[3]:         0         0         1         0         0         0         0         0         0         0         0        10         0         0         0         0 
dram[4]:         1         0         0         0         0         0         0         0         0         0         0         0         0         0         1         1 
dram[5]:         0         0         0         0         0         0         0         0         0         0         0         0         0         0         1         1 
dram[6]:         0         0         0         0         0         0         0         0         0         0         0         0         2         0         0         0 
dram[7]:         0         0         1         0         0         0         0         0         0         0         0         0         0         0         0         0 
dram[8]:         0         0         0         0         2         0         0         0         0         0         0         0         0         0         0         0 
dram[9]:         0         0         1         0         0         0         0         0         0         0         0         0         0         0         0         0 
dram[10]:         0         0         0         0         0         0         0         0        11         0         0         0         2         0         0         0 
maximum service time to same row:
dram[0]:    127185    162929    174055    174059    174356    174376         0         0      4581    131255     11447     11452     82966    151727    151940    151926 
dram[1]:    162930    162933    174055    174059    174375    114810     65670         0      4580      4581    113836     11459    151722    151725    151935    101055 
dram[2]:    162921    162925    126757    174057    174358    174372         0         0      4580     76138     11447     11452    151722    151727    151913    151926 
dram[3]:    162927    162929    127470    174059     82115    174396         0         0      4580      4584     11455     80736    151722    151725    151914    151927 
dram[4]:     81582    162933    174055    174059    174356    174376         0         0      4580      4584     11447     11452    151722    151727    151703    151137 
dram[5]:    162942    162944    174055    174059    174355    174373         0         0      4580      4584     11455     11459    151722    151725    137595    147088 
dram[6]:    162925    162928    174056    174061    174375    174398     82972         0      4580      4584     11447     11452     76078    151727    151938    151926 
dram[7]:    162932    162935     91618    174061    174355    174377         0         0      4580      4584     11455     11459    151722    151725    151920    151926 
dram[8]:    162927    162928    174056    174061     92255    174361     65672         0      4580      4584     11475     11479    151722    151727    151913    151926 
dram[9]:    162932    162934    125900    174057    174389    174415         0         0      4580      4584     11470     11473    151722    151725    151914    151926 
dram[10]:    162926    162932    174056    174060     57430    174366         0         0    118796      4582     11468     11472     82958    151727    151921    151926 
average row accesses per activate:
dram[0]:  9.000000 16.000000 16.000000 16.000000  3.000000  3.000000      -nan      -nan 10.000000  6.000000 16.000000 16.000000  9.000000 16.000000 16.000000 16.000000 
dram[1]: 16.000000 16.000000 16.000000 16.000000  3.000000  2.000000  2.000000      -nan 10.000000 10.000000  4.500000 16.000000 16.000000 16.000000 16.000000  9.000000 
dram[2]: 16.000000 16.000000  8.500000 16.000000  3.000000  3.000000      -nan      -nan 10.000000  5.500000 16.000000 16.000000 16.000000 16.000000 16.000000 16.000000 
dram[3]: 16.000000 16.000000  8.500000 16.000000  5.000000  3.000000      -nan      -nan 10.000000 10.000000 16.000000  6.000000 16.000000 16.000000 16.000000 16.000000 
dram[4]:  8.500000 16.000000 16.000000 16.000000  3.000000  3.000000      -nan      -nan 10.000000 10.000000 16.000000 16.000000 16.000000 16.000000  8.500000  8.500000 
dram[5]: 16.000000 16.000000 16.000000 16.000000  3.000000  3.000000      -nan      -nan 10.000000 10.000000 16.000000 16.000000 16.000000 16.000000  8.500000  8.500000 
dram[6]: 16.000000 16.000000 16.000000 16.000000  3.000000  3.000000  2.000000      -nan 10.000000 10.000000 16.000000 16.000000  9.000000 16.000000 16.000000 16.000000 
dram[7]: 16.000000 16.000000  8.500000 16.000000  3.000000  2.000000      -nan      -nan 10.000000 10.000000 16.000000 16.000000 16.000000 16.000000 16.000000 16.000000 
dram[8]: 16.000000 16.000000 16.000000 16.000000  2.000000  2.000000  2.000000      -nan 10.000000 10.000000 16.000000 16.000000 16.000000 16.000000 16.000000 16.000000 
dram[9]: 16.000000 16.000000  8.500000 16.000000  2.000000  2.000000      -nan      -nan 11.000000 11.000000 16.000000 16.000000 16.000000 16.000000 16.000000 16.000000 
dram[10]: 16.000000 16.000000 16.000000 16.000000  4.000000  2.000000      -nan      -nan  6.500000 11.000000 16.000000 16.000000  9.000000 16.000000 16.000000 16.000000 
average row locality = 2084/181 = 11.513812
number of total memory accesses made:
dram[0]:         0         0         0         0         0         0         0         0         0         0         0         0         0         0         0         0 
dram[1]:         0         0         0         0         0         0         0         0         0         0         0         0         0         0         0         0 
dram[2]:         0         0         0         0         0         0         0         0         0         0         0         0         0         0         0         0 
dram[3]:         0         0         0         0         0         0         0         0         0         0         0         0         0         0         0         0 
dram[4]:         0         0         0         0         0         0         0         0         0         0         0         0         0         0         0         0 
dram[5]:         0         0         0         0         0         0         0         0         0         0         0         0         0         0         0         0 
dram[6]:         0         0         0         0         0         0         0         0         0         0         0         0         0         0         0         0 
dram[7]:         0         0         0         0         0         0         0         0         0         0         0         0         0         0         0         0 
dram[8]:         0         0         0         0         0         0         0         0         0         0         0         0         0         0         0         0 
dram[9]:         0         0         0         0         0         0         0         0         0         0         0         0         0         0         0         0 
dram[10]:         0         0         0         0         0         0         0         0         0         0         0         0         0         0         0         0 
total accesses: 0
min_bank_accesses = 0!
min_chip_accesses = 0!
number of total read accesses:
dram[0]:        18        16        16        16         3         3         0         0        10        11        16        16        17        16        16        16 
dram[1]:        16        16        16        16         3         4         1         0        10        10        18        16        16        16        16        17 
dram[2]:        16        16        17        16         3         3         0         0        10        11        16        16        16        16        16        16 
dram[3]:        16        16        17        16         4         3         0         0        10        10        16        17        16        16        16        16 
dram[4]:        17        16        16        16         3         3         0         0        10        10        16        16        16        16        17        17 
dram[5]:        16        16        16        16         3         3         0         0        10        10        16        16        16        16        17        17 
dram[6]:        16        16        16        16         3         3         1         0        10        10        16        16        17        16        16        16 
dram[7]:        16        16        17        16         3         2         0         0        10        10        16        16        16        16        16        16 
dram[8]:        16        16        16        16         3         2         1         0        10        10        16        16        16        16        16        16 
dram[9]:        16        16        17        16         2         2         0         0        11        11        16        16        16        16        16        16 
dram[10]:        16        16        16        16         3         2         0         0        12        11        16        16        17        16        16        16 
total reads: 2071
min_bank_accesses = 0!
chip skew: 191/186 = 1.03
number of total write accesses:
dram[0]:         0         0         0         0         0         0         0         0         0         1         0         0         1         0         0         0 
dram[1]:         0         0         0         0         0         0         1         0         0         0         0         0         0         0         0         1 
dram[2]:         0         0         0         0         0         0         0         0         0         0         0         0         0         0         0         0 
dram[3]:         0         0         0         0         1         0         0         0         0         0         0         1         0         0         0         0 
dram[4]:         0         0         0         0         0         0         0         0         0         0         0         0         0         0         0         0 
dram[5]:         0         0         0         0         0         0         0         0         0         0         0         0         0         0         0         0 
dram[6]:         0         0         0         0         0         0         1         0         0         0         0         0         1         0         0         0 
dram[7]:         0         0         0         0         0         0         0         0         0         0         0         0         0         0         0         0 
dram[8]:         0         0         0         0         1         0         1         0         0         0         0         0         0         0         0         0 
dram[9]:         0         0         0         0         0         0         0         0         0         0         0         0         0         0         0         0 
dram[10]:         0         0         0         0         1         0         0         0         1         0         0         0         1         0         0         0 
total reads: 13
min_bank_accesses = 0!
min_chip_accesses = 0!
average mf latency per bank:
dram[0]:      17706     18786     29798     29829      1175      1150    none      none       25935     23374     31409     31468     45104     49515     23992     23995
dram[1]:      18777     18750     29764     29810      1126      8783      9089    none       25930     26005     29730     32077     49366     49506     23996     22442
dram[2]:      16215     16180     28029     29831      1149      1045    none      none       25928     26534     29429     29484     49338     49448     24027     24011
dram[3]:      16238     16215     28650     29720       733      1083    none      none       25939     25987     29441     26834     49316     49425     26005     26007
dram[4]:      15249     16171     27163     27140      1164      1137    none      none       25920     25971     29420     29463     49332     49404     25101     25138
dram[5]:      16156     16132     27165     27211      1151      1137    none      none       25917     25979     29419     29475     49269     49399     25062     25107
dram[6]:      18161     18160     27144     27159      1130      1103       170    none       25901     25970     30053     30098     42577     46204     26622     26647
dram[7]:      18869     18836     25504     27103      1051      1060    none      none       28645     28708     30075     30127     46107     46220     26556     26595
dram[8]:      18822     18790     27064     27148       696      1133      8662    none       28665     28754     30088     30125     46089     46193     26593     26626
dram[9]:      18811     18766     25571     27111      1149      1147    none      none       27488     27531     30084     30126     46080     46179     26624     26633
dram[10]:      18790     18725     27110     27104      3302      1145    none      none       23859     27509     30080     30128     41016     46266     26609     26603
maximum mf latency per bank:
dram[0]:      10887     10824     10929     10918       353       354         0         0     10608     20838     10680     10723     21279     13335     10817     10834
dram[1]:      10776     10779     10836     10881       353     31869     18179         0     10616     10630     10647     10689     13300     13318     10821     20137
dram[2]:      10777     10754     10889     10920       352       348         0         0     10607     32067     10648     10682     13306     13319     10885     10910
dram[3]:      10792     10793     10892     10921       353       357         0         0     10612     10627     10645     11297     13300     13310     10868     10898
dram[4]:      10795     10776     10939     10919       353       352         0         0     10603     10616     10657     10691     13300     13301     10853     10894
dram[5]:      10910     10913     10903     10903       355       357         0         0     10607     10623     10640     10678     13300     13310     10850     10849
dram[6]:      10911     10913     10798     10823       353       355       341         0     10601     10618     10644     10682     27745     13322     10796     10839
dram[7]:      10881     10850     10825     10832       352       352         0         0     10616     10646     10643     10679     13300     13318     10795     10836
dram[8]:      10778     10780     10777     10809       364       353     17325         0     10633     10673     10670     10703     13300     13301     10812     10837
dram[9]:      10780     10782     10840     10829       357       352         0         0     10643     10643     10680     10705     13300     13317     10875     10893
dram[10]:      10887     10889     10918     10926     10795       353         0         0     10648     10662     10672     10706     13310     13326     10878     10871
Memory Partition 0: 
Cache L2_bank_000:
MSHR contents

Cache L2_bank_001:
MSHR contents

In Dram Latency Queue (total = 0): 
DRAM[0]: 16 bks, busW=4 BL=8 CL=12, tRRD=2 tCCD=6, tRCD=12 tRAS=28 tRP=12 tRC=40
n_cmd=324226 n_nop=323442 n_act=18 n_pre=4 n_req=192 n_rd=760 n_write=2 bw_util=0.0047
n_activity=2060 dram_eff=0.7398
bk0: 72a 323962i bk1: 64a 323966i bk2: 64a 324072i bk3: 64a 323992i bk4: 12a 324185i bk5: 12a 324184i bk6: 0a 324228i bk7: 0a 324231i bk8: 40a 324133i bk9: 44a 324031i bk10: 64a 324035i bk11: 64a 323938i bk12: 68a 324047i bk13: 64a 323966i bk14: 64a 324079i bk15: 64a 323962i 
dram_util_bins: 0 0 0 0 0 0 0 0 0 0
dram_eff_bins: 0 0 0 0 0 0 0 0 0 0
mrqq: max=15 avg=0.0191225
Memory Partition 1: 
Cache L2_bank_002:
MSHR contents

Cache L2_bank_003:
MSHR contents

In Dram Latency Queue (total = 0): 
DRAM[1]: 16 bks, busW=4 BL=8 CL=12, tRRD=2 tCCD=6, tRCD=12 tRAS=28 tRP=12 tRC=40
n_cmd=324226 n_nop=323435 n_act=20 n_pre=5 n_req=193 n_rd=764 n_write=2 bw_util=0.004725
n_activity=2094 dram_eff=0.7316
bk0: 64a 324030i bk1: 64a 323984i bk2: 64a 324080i bk3: 64a 323993i bk4: 12a 324192i bk5: 16a 324158i bk6: 4a 324199i bk7: 0a 324226i bk8: 40a 324136i bk9: 40a 324066i bk10: 72a 323972i bk11: 64a 323942i bk12: 64a 324082i bk13: 64a 323974i bk14: 64a 324081i bk15: 68a 323933i 
dram_util_bins: 0 0 0 0 0 0 0 0 0 0
dram_eff_bins: 0 0 0 0 0 0 0 0 0 0
mrqq: max=14 avg=0.0176636
Memory Partition 2: 
Cache L2_bank_004:
MSHR contents

Cache L2_bank_005:
MSHR contents

In Dram Latency Queue (total = 0): 
DRAM[2]: 16 bks, busW=4 BL=8 CL=12, tRRD=2 tCCD=6, tRCD=12 tRAS=28 tRP=12 tRC=40
n_cmd=324226 n_nop=323456 n_act=16 n_pre=2 n_req=188 n_rd=752 n_write=0 bw_util=0.004639
n_activity=1965 dram_eff=0.7654
bk0: 64a 324018i bk1: 64a 323950i bk2: 68a 324046i bk3: 64a 323969i bk4: 12a 324193i bk5: 12a 324188i bk6: 0a 324226i bk7: 0a 324228i bk8: 40a 324139i bk9: 44a 324035i bk10: 64a 324036i bk11: 64a 323943i bk12: 64a 324083i bk13: 64a 323973i bk14: 64a 324090i bk15: 64a 323993i 
dram_util_bins: 0 0 0 0 0 0 0 0 0 0
dram_eff_bins: 0 0 0 0 0 0 0 0 0 0
mrqq: max=13 avg=0.0165224
Memory Partition 3: 
Cache L2_bank_006:
MSHR contents

Cache L2_bank_007:
MSHR contents

In Dram Latency Queue (total = 0): 
DRAM[3]: 16 bks, busW=4 BL=8 CL=12, tRRD=2 tCCD=6, tRCD=12 tRAS=28 tRP=12 tRC=40
n_cmd=324226 n_nop=323448 n_act=17 n_pre=3 n_req=191 n_rd=756 n_write=2 bw_util=0.004676
n_activity=1951 dram_eff=0.777
bk0: 64a 324013i bk1: 64a 323955i bk2: 68a 324055i bk3: 64a 323992i bk4: 16a 324169i bk5: 12a 324192i bk6: 0a 324226i bk7: 0a 324228i bk8: 40a 324139i bk9: 40a 324070i bk10: 64a 324061i bk11: 68a 323905i bk12: 64a 324078i bk13: 64a 323971i bk14: 64a 324071i bk15: 64a 323993i 
dram_util_bins: 0 0 0 0 0 0 0 0 0 0
dram_eff_bins: 0 0 0 0 0 0 0 0 0 0
mrqq: max=13 avg=0.0165841
Memory Partition 4: 
Cache L2_bank_008:
MSHR contents

Cache L2_bank_009:
MSHR contents

In Dram Latency Queue (total = 0): 
DRAM[4]: 16 bks, busW=4 BL=8 CL=12, tRRD=2 tCCD=6, tRCD=12 tRAS=28 tRP=12 tRC=40
n_cmd=324226 n_nop=323450 n_act=17 n_pre=3 n_req=189 n_rd=756 n_write=0 bw_util=0.004663
n_activity=1976 dram_eff=0.7652
bk0: 68a 323986i bk1: 64a 323956i bk2: 64a 324075i bk3: 64a 323983i bk4: 12a 324183i bk5: 12a 324190i bk6: 0a 324226i bk7: 0a 324228i bk8: 40a 324137i bk9: 40a 324071i bk10: 64a 324042i bk11: 64a 323938i bk12: 64a 324081i bk13: 64a 323977i bk14: 68a 324050i bk15: 68a 323926i 
dram_util_bins: 0 0 0 0 0 0 0 0 0 0
dram_eff_bins: 0 0 0 0 0 0 0 0 0 0
mrqq: max=14 avg=0.0166766
Memory Partition 5: 
Cache L2_bank_010:
MSHR contents

Cache L2_bank_011:
MSHR contents

In Dram Latency Queue (total = 0): 
DRAM[5]: 16 bks, busW=4 BL=8 CL=12, tRRD=2 tCCD=6, tRCD=12 tRAS=28 tRP=12 tRC=40
n_cmd=324226 n_nop=323456 n_act=16 n_pre=2 n_req=188 n_rd=752 n_write=0 bw_util=0.004639
n_activity=1935 dram_eff=0.7773
bk0: 64a 324036i bk1: 64a 323986i bk2: 64a 324079i bk3: 64a 323998i bk4: 12a 324188i bk5: 12a 324185i bk6: 0a 324225i bk7: 0a 324227i bk8: 40a 324136i bk9: 40a 324067i bk10: 64a 324050i bk11: 64a 323955i bk12: 64a 324090i bk13: 64a 323975i bk14: 68a 324045i bk15: 68a 323951i 
dram_util_bins: 0 0 0 0 0 0 0 0 0 0
dram_eff_bins: 0 0 0 0 0 0 0 0 0 0
mrqq: max=12 avg=0.0141907
Memory Partition 6: 
Cache L2_bank_012:
MSHR contents

Cache L2_bank_013:
MSHR contents

In Dram Latency Queue (total = 0): 
DRAM[6]: 16 bks, busW=4 BL=8 CL=12, tRRD=2 tCCD=6, tRCD=12 tRAS=28 tRP=12 tRC=40
n_cmd=324226 n_nop=323455 n_act=16 n_pre=1 n_req=190 n_rd=752 n_write=2 bw_util=0.004651
n_activity=1926 dram_eff=0.783
bk0: 64a 324011i bk1: 64a 323975i bk2: 64a 324065i bk3: 64a 323994i bk4: 12a 324189i bk5: 12a 324183i bk6: 4a 324200i bk7: 0a 324227i bk8: 40a 324139i bk9: 40a 324073i bk10: 64a 324035i bk11: 64a 323940i bk12: 68a 324047i bk13: 64a 323972i bk14: 64a 324076i bk15: 64a 323940i 
dram_util_bins: 0 0 0 0 0 0 0 0 0 0
dram_eff_bins: 0 0 0 0 0 0 0 0 0 0
mrqq: max=13 avg=0.0162849
Memory Partition 7: 
Cache L2_bank_014:
MSHR contents

Cache L2_bank_015:
MSHR contents

In Dram Latency Queue (total = 0): 
DRAM[7]: 16 bks, busW=4 BL=8 CL=12, tRRD=2 tCCD=6, tRCD=12 tRAS=28 tRP=12 tRC=40
n_cmd=324226 n_nop=323466 n_act=15 n_pre=1 n_req=186 n_rd=744 n_write=0 bw_util=0.004589
n_activity=1894 dram_eff=0.7856
bk0: 64a 324020i bk1: 64a 323976i bk2: 68a 324044i bk3: 64a 323980i bk4: 12a 324191i bk5: 8a 324188i bk6: 0a 324224i bk7: 0a 324226i bk8: 40a 324134i bk9: 40a 324065i bk10: 64a 324036i bk11: 64a 323940i bk12: 64a 324090i bk13: 64a 323982i bk14: 64a 324082i bk15: 64a 323982i 
dram_util_bins: 0 0 0 0 0 0 0 0 0 0
dram_eff_bins: 0 0 0 0 0 0 0 0 0 0
mrqq: max=13 avg=0.0159056
Memory Partition 8: 
Cache L2_bank_016:
MSHR contents

Cache L2_bank_017:
MSHR contents

In Dram Latency Queue (total = 0): 
DRAM[8]: 16 bks, busW=4 BL=8 CL=12, tRRD=2 tCCD=6, tRCD=12 tRAS=28 tRP=12 tRC=40
n_cmd=324226 n_nop=323463 n_act=16 n_pre=1 n_req=188 n_rd=744 n_write=2 bw_util=0.004602
n_activity=1886 dram_eff=0.7911
bk0: 64a 324004i bk1: 64a 323978i bk2: 64a 324069i bk3: 64a 323986i bk4: 12a 324156i bk5: 8a 324189i bk6: 4a 324197i bk7: 0a 324224i bk8: 40a 324134i bk9: 40a 324066i bk10: 64a 324079i bk11: 64a 323975i bk12: 64a 324081i bk13: 64a 323985i bk14: 64a 324076i bk15: 64a 323970i 
dram_util_bins: 0 0 0 0 0 0 0 0 0 0
dram_eff_bins: 0 0 0 0 0 0 0 0 0 0
mrqq: max=12 avg=0.015921
Memory Partition 9: 
Cache L2_bank_018:
MSHR contents

Cache L2_bank_019:
MSHR contents

In Dram Latency Queue (total = 0): 
DRAM[9]: 16 bks, busW=4 BL=8 CL=12, tRRD=2 tCCD=6, tRCD=12 tRAS=28 tRP=12 tRC=40
n_cmd=324226 n_nop=323462 n_act=15 n_pre=1 n_req=187 n_rd=748 n_write=0 bw_util=0.004614
n_activity=1935 dram_eff=0.7731
bk0: 64a 324018i bk1: 64a 323964i bk2: 68a 324038i bk3: 64a 323969i bk4: 8a 324194i bk5: 8a 324199i bk6: 0a 324225i bk7: 0a 324225i bk8: 44a 324120i bk9: 44a 324052i bk10: 64a 324065i bk11: 64a 323966i bk12: 64a 324091i bk13: 64a 323983i bk14: 64a 324091i bk15: 64a 323987i 
dram_util_bins: 0 0 0 0 0 0 0 0 0 0
dram_eff_bins: 0 0 0 0 0 0 0 0 0 0
mrqq: max=13 avg=0.0147397
Memory Partition 10: 
Cache L2_bank_020:
MSHR contents

Cache L2_bank_021:
MSHR contents

In Dram Latency Queue (total = 0): 
DRAM[10]: 16 bks, busW=4 BL=8 CL=12, tRRD=2 tCCD=6, tRCD=12 tRAS=28 tRP=12 tRC=40
n_cmd=324226 n_nop=323449 n_act=16 n_pre=2 n_req=192 n_rd=756 n_write=3 bw_util=0.004682
n_activity=1990 dram_eff=0.7628
bk0: 64a 324010i bk1: 64a 323958i bk2: 64a 324078i bk3: 64a 324005i bk4: 12a 324178i bk5: 8a 324185i bk6: 0a 324225i bk7: 0a 324227i bk8: 48a 324085i bk9: 44a 324052i bk10: 64a 324067i bk11: 64a 323962i bk12: 68a 324046i bk13: 64a 323974i bk14: 64a 324073i bk15: 64a 323972i 
dram_util_bins: 0 0 0 0 0 0 0 0 0 0
dram_eff_bins: 0 0 0 0 0 0 0 0 0 0
mrqq: max=13 avg=0.0145053

========= L2 cache stats =========
L2_cache_bank[0]: Access = 402, Miss = 96, Miss_rate = 0.239, Pending_hits = 306, Reservation_fails = 0
L2_cache_bank[1]: Access = 373, Miss = 94, Miss_rate = 0.252, Pending_hits = 278, Reservation_fails = 0
L2_cache_bank[2]: Access = 396, Miss = 96, Miss_rate = 0.242, Pending_hits = 279, Reservation_fails = 0
L2_cache_bank[3]: Access = 374, Miss = 95, Miss_rate = 0.254, Pending_hits = 277, Reservation_fails = 0
L2_cache_bank[4]: Access = 373, Miss = 94, Miss_rate = 0.252, Pending_hits = 279, Reservation_fails = 0
L2_cache_bank[5]: Access = 373, Miss = 94, Miss_rate = 0.252, Pending_hits = 277, Reservation_fails = 0
L2_cache_bank[6]: Access = 381, Miss = 95, Miss_rate = 0.249, Pending_hits = 279, Reservation_fails = 0
L2_cache_bank[7]: Access = 373, Miss = 94, Miss_rate = 0.252, Pending_hits = 278, Reservation_fails = 0
L2_cache_bank[8]: Access = 401, Miss = 95, Miss_rate = 0.237, Pending_hits = 306, Reservation_fails = 0
L2_cache_bank[9]: Access = 400, Miss = 94, Miss_rate = 0.235, Pending_hits = 303, Reservation_fails = 0
L2_cache_bank[10]: Access = 373, Miss = 94, Miss_rate = 0.252, Pending_hits = 277, Reservation_fails = 0
L2_cache_bank[11]: Access = 400, Miss = 94, Miss_rate = 0.235, Pending_hits = 302, Reservation_fails = 0
L2_cache_bank[12]: Access = 374, Miss = 95, Miss_rate = 0.254, Pending_hits = 277, Reservation_fails = 0
L2_cache_bank[13]: Access = 372, Miss = 93, Miss_rate = 0.250, Pending_hits = 277, Reservation_fails = 0
L2_cache_bank[14]: Access = 372, Miss = 94, Miss_rate = 0.253, Pending_hits = 278, Reservation_fails = 0
L2_cache_bank[15]: Access = 368, Miss = 92, Miss_rate = 0.250, Pending_hits = 276, Reservation_fails = 0
L2_cache_bank[16]: Access = 370, Miss = 94, Miss_rate = 0.254, Pending_hits = 276, Reservation_fails = 0
L2_cache_bank[17]: Access = 368, Miss = 92, Miss_rate = 0.250, Pending_hits = 276, Reservation_fails = 0
L2_cache_bank[18]: Access = 374, Miss = 94, Miss_rate = 0.251, Pending_hits = 279, Reservation_fails = 0
L2_cache_bank[19]: Access = 372, Miss = 93, Miss_rate = 0.250, Pending_hits = 279, Reservation_fails = 0
L2_cache_bank[20]: Access = 375, Miss = 96, Miss_rate = 0.256, Pending_hits = 279, Reservation_fails = 0
L2_cache_bank[21]: Access = 372, Miss = 93, Miss_rate = 0.250, Pending_hits = 278, Reservation_fails = 0
L2_total_cache_accesses = 8336
L2_total_cache_misses = 2071
L2_total_cache_miss_rate = 0.2484
L2_total_cache_pending_hits = 6216
L2_total_cache_reservation_fails = 0
L2_total_cache_breakdown:
	L2_cache_stats_breakdown[GLOBAL_ACC_R][HIT] = 47
	L2_cache_stats_breakdown[GLOBAL_ACC_R][HIT_RESERVED] = 6108
	L2_cache_stats_breakdown[GLOBAL_ACC_R][MISS] = 2053
	L2_cache_stats_breakdown[GLOBAL_ACC_R][RESERVATION_FAIL] = 0
	L2_cache_stats_breakdown[LOCAL_ACC_R][HIT] = 0
	L2_cache_stats_breakdown[LOCAL_ACC_R][HIT_RESERVED] = 0
	L2_cache_stats_breakdown[LOCAL_ACC_R][MISS] = 0
	L2_cache_stats_breakdown[LOCAL_ACC_R][RESERVATION_FAIL] = 0
	L2_cache_stats_breakdown[CONST_ACC_R][HIT] = 0
	L2_cache_stats_breakdown[CONST_ACC_R][HIT_RESERVED] = 27
	L2_cache_stats_breakdown[CONST_ACC_R][MISS] = 1
	L2_cache_stats_breakdown[CONST_ACC_R][RESERVATION_FAIL] = 0
	L2_cache_stats_breakdown[TEXTURE_ACC_R][HIT] = 0
	L2_cache_stats_breakdown[TEXTURE_ACC_R][HIT_RESERVED] = 0
	L2_cache_stats_breakdown[TEXTURE_ACC_R][MISS] = 0
	L2_cache_stats_breakdown[TEXTURE_ACC_R][RESERVATION_FAIL] = 0
	L2_cache_stats_breakdown[GLOBAL_ACC_W][HIT] = 2
	L2_cache_stats_breakdown[GLOBAL_ACC_W][HIT_RESERVED] = 0
	L2_cache_stats_breakdown[GLOBAL_ACC_W][MISS] = 13
	L2_cache_stats_breakdown[GLOBAL_ACC_W][RESERVATION_FAIL] = 0
	L2_cache_stats_breakdown[LOCAL_ACC_W][HIT] = 0
	L2_cache_stats_breakdown[LOCAL_ACC_W][HIT_RESERVED] = 0
	L2_cache_stats_breakdown[LOCAL_ACC_W][MISS] = 0
	L2_cache_stats_breakdown[LOCAL_ACC_W][RESERVATION_FAIL] = 0
	L2_cache_stats_breakdown[L1_WRBK_ACC][HIT] = 0
	L2_cache_stats_breakdown[L1_WRBK_ACC][HIT_RESERVED] = 0
	L2_cache_stats_breakdown[L1_WRBK_ACC][MISS] = 0
	L2_cache_stats_breakdown[L1_WRBK_ACC][RESERVATION_FAIL] = 0
	L2_cache_stats_breakdown[L2_WRBK_ACC][HIT] = 0
	L2_cache_stats_breakdown[L2_WRBK_ACC][HIT_RESERVED] = 0
	L2_cache_stats_breakdown[L2_WRBK_ACC][MISS] = 0
	L2_cache_stats_breakdown[L2_WRBK_ACC][RESERVATION_FAIL] = 0
	L2_cache_stats_breakdown[INST_ACC_R][HIT] = 0
	L2_cache_stats_breakdown[INST_ACC_R][HIT_RESERVED] = 81
	L2_cache_stats_breakdown[INST_ACC_R][MISS] = 4
	L2_cache_stats_breakdown[INST_ACC_R][RESERVATION_FAIL] = 0
	L2_cache_stats_breakdown[L1_WR_ALLOC_R][HIT] = 0
	L2_cache_stats_breakdown[L1_WR_ALLOC_R][HIT_RESERVED] = 0
	L2_cache_stats_breakdown[L1_WR_ALLOC_R][MISS] = 0
	L2_cache_stats_breakdown[L1_WR_ALLOC_R][RESERVATION_FAIL] = 0
	L2_cache_stats_breakdown[L2_WR_ALLOC_R][HIT] = 0
	L2_cache_stats_breakdown[L2_WR_ALLOC_R][HIT_RESERVED] = 0
	L2_cache_stats_breakdown[L2_WR_ALLOC_R][MISS] = 0
	L2_cache_stats_breakdown[L2_WR_ALLOC_R][RESERVATION_FAIL] = 0
	L2_cache_stats_breakdown[GLOBAL_ACC_R][TOTAL_ACCESS] = 8208
	L2_cache_stats_breakdown[CONST_ACC_R][TOTAL_ACCESS] = 28
	L2_cache_stats_breakdown[GLOBAL_ACC_W][TOTAL_ACCESS] = 15
	L2_cache_stats_breakdown[INST_ACC_R][TOTAL_ACCESS] = 85
L2_cache_data_port_util = 0.000
L2_cache_fill_port_util = 0.002

icnt_total_pkts_mem_to_simt=16940
icnt_total_pkts_simt_to_mem=8351
LD_mem_lat_dist  0 0 0 0 0 0 0 0 0 0 0 0 0 0 0 0 0 0 0 0 0 0 0 0 0 0 0
ST_mem_lat_dist  0 0 0 0 0 0 0 0 0 0 0 0 0 0 0 0 0 0 0 0 0 0 0 0 0 0 0
----------------------------Interconnect-DETAILS--------------------------------
Class 0:
Packet latency average = 23.9968
	minimum = 6
	maximum = 96
Network latency average = 16.8232
	minimum = 6
	maximum = 60
Slowest packet = 27
Flit latency average = 15.49
	minimum = 6
	maximum = 60
Slowest flit = 27
Fragmentation average = 0
	minimum = 0
	maximum = 0
Injected packet rate average = 0.000954814
	minimum = 0.000790333 (at node 13)
	maximum = 0.00115114 (at node 28)
Accepted packet rate average = 0.000954814
	minimum = 0.000790333 (at node 13)
	maximum = 0.00115114 (at node 28)
Injected flit rate average = 0.00144843
	minimum = 0.000790333 (at node 13)
	maximum = 0.00253708 (at node 36)
Accepted flit rate average= 0.00144843
	minimum = 0.00105378 (at node 43)
	maximum = 0.0020331 (at node 1)
Injected packet length average = 1.51697
Accepted packet length average = 1.51697
Total in-flight flits = 0 (0 measured)
====== Overall Traffic Statistics ======
====== Traffic class 0 ======
Packet latency average = 23.9968 (1 samples)
	minimum = 6 (1 samples)
	maximum = 96 (1 samples)
Network latency average = 16.8232 (1 samples)
	minimum = 6 (1 samples)
	maximum = 60 (1 samples)
Flit latency average = 15.49 (1 samples)
	minimum = 6 (1 samples)
	maximum = 60 (1 samples)
Fragmentation average = 0 (1 samples)
	minimum = 0 (1 samples)
	maximum = 0 (1 samples)
Injected packet rate average = 0.000954814 (1 samples)
	minimum = 0.000790333 (1 samples)
	maximum = 0.00115114 (1 samples)
Accepted packet rate average = 0.000954814 (1 samples)
	minimum = 0.000790333 (1 samples)
	maximum = 0.00115114 (1 samples)
Injected flit rate average = 0.00144843 (1 samples)
	minimum = 0.000790333 (1 samples)
	maximum = 0.00253708 (1 samples)
Accepted flit rate average = 0.00144843 (1 samples)
	minimum = 0.00105378 (1 samples)
	maximum = 0.0020331 (1 samples)
Injected packet size average = 1.51697 (1 samples)
Accepted packet size average = 1.51697 (1 samples)
Hops average = 1 (1 samples)
----------------------------END-of-Interconnect-DETAILS-------------------------


gpgpu_simulation_time = 0 days, 0 hrs, 2 min, 37 sec (157 sec)
gpgpu_simulation_rate = 31657 (inst/sec)
gpgpu_simulation_rate = 2543 (cycle/sec)

GPGPU-Sim PTX: cudaLaunch for 0x0x401649 (mode=performance simulation) on stream 0
GPGPU-Sim PTX: pushing kernel '_Z7Kernel2PbS_S_S_i' to stream 0, gridDim= (511,1,1) blockDim = (512,1,1) 
GPGPU-Sim uArch: Shader 2 bind to kernel 2 '_Z7Kernel2PbS_S_S_i'
GPGPU-Sim uArch: CTA/core = 4, limited by: threads
GPGPU-Sim uArch: Shader 3 bind to kernel 2 '_Z7Kernel2PbS_S_S_i'
GPGPU-Sim uArch: Shader 4 bind to kernel 2 '_Z7Kernel2PbS_S_S_i'
GPGPU-Sim uArch: Shader 5 bind to kernel 2 '_Z7Kernel2PbS_S_S_i'
GPGPU-Sim uArch: Shader 6 bind to kernel 2 '_Z7Kernel2PbS_S_S_i'
GPGPU-Sim uArch: Shader 7 bind to kernel 2 '_Z7Kernel2PbS_S_S_i'
GPGPU-Sim uArch: Shader 8 bind to kernel 2 '_Z7Kernel2PbS_S_S_i'
GPGPU-Sim uArch: Shader 9 bind to kernel 2 '_Z7Kernel2PbS_S_S_i'
GPGPU-Sim uArch: Shader 10 bind to kernel 2 '_Z7Kernel2PbS_S_S_i'
GPGPU-Sim uArch: Shader 11 bind to kernel 2 '_Z7Kernel2PbS_S_S_i'
GPGPU-Sim uArch: Shader 12 bind to kernel 2 '_Z7Kernel2PbS_S_S_i'
GPGPU-Sim uArch: Shader 13 bind to kernel 2 '_Z7Kernel2PbS_S_S_i'
GPGPU-Sim uArch: Shader 14 bind to kernel 2 '_Z7Kernel2PbS_S_S_i'
GPGPU-Sim uArch: Shader 15 bind to kernel 2 '_Z7Kernel2PbS_S_S_i'
GPGPU-Sim uArch: Shader 16 bind to kernel 2 '_Z7Kernel2PbS_S_S_i'
GPGPU-Sim uArch: Shader 17 bind to kernel 2 '_Z7Kernel2PbS_S_S_i'
GPGPU-Sim uArch: Shader 18 bind to kernel 2 '_Z7Kernel2PbS_S_S_i'
GPGPU-Sim uArch: Shader 19 bind to kernel 2 '_Z7Kernel2PbS_S_S_i'
GPGPU-Sim uArch: Shader 20 bind to kernel 2 '_Z7Kernel2PbS_S_S_i'
GPGPU-Sim uArch: Shader 21 bind to kernel 2 '_Z7Kernel2PbS_S_S_i'
GPGPU-Sim uArch: Shader 22 bind to kernel 2 '_Z7Kernel2PbS_S_S_i'
GPGPU-Sim uArch: Shader 23 bind to kernel 2 '_Z7Kernel2PbS_S_S_i'
GPGPU-Sim uArch: Shader 24 bind to kernel 2 '_Z7Kernel2PbS_S_S_i'
GPGPU-Sim uArch: Shader 25 bind to kernel 2 '_Z7Kernel2PbS_S_S_i'
GPGPU-Sim uArch: Shader 26 bind to kernel 2 '_Z7Kernel2PbS_S_S_i'
GPGPU-Sim uArch: Shader 27 bind to kernel 2 '_Z7Kernel2PbS_S_S_i'
GPGPU-Sim uArch: Shader 0 bind to kernel 2 '_Z7Kernel2PbS_S_S_i'
GPGPU-Sim uArch: Shader 1 bind to kernel 2 '_Z7Kernel2PbS_S_S_i'
Destroy streams for kernel 2: size 0
kernel_name = _Z7Kernel2PbS_S_S_i 
kernel_launch_uid = 2 
gpu_sim_cycle = 14550
gpu_sim_insn = 4446874
gpu_ipc =     305.6271
gpu_tot_sim_cycle = 635997
gpu_tot_sim_insn = 9417112
gpu_tot_ipc =      14.8068
gpu_tot_issued_cta = 1022
max_total_param_size = 0
gpu_stall_dramfull = 430
gpu_stall_icnt2sh    = 18675
partiton_reqs_in_parallel = 319771
partiton_reqs_in_parallel_total    = 3841341
partiton_level_parallism =      21.9774
partiton_level_parallism_total  =       6.5427
partiton_reqs_in_parallel_util = 319771
partiton_reqs_in_parallel_util_total    = 3841341
gpu_sim_cycle_parition_util = 14550
gpu_tot_sim_cycle_parition_util    = 174611
partiton_level_parallism_util =      21.9774
partiton_level_parallism_util_total  =      21.9977
partiton_replys_in_parallel = 8255
partiton_replys_in_parallel_total    = 8336
L2_BW  =      53.7761 GB/Sec
L2_BW_total  =       2.4726 GB/Sec
gpu_total_sim_rate=52028

========= Core cache stats =========
L1I_cache:
	L1I_total_cache_accesses = 171793
	L1I_total_cache_misses = 5466
	L1I_total_cache_miss_rate = 0.0318
	L1I_total_cache_pending_hits = 0
	L1I_total_cache_reservation_fails = 16477
L1D_cache:
	L1D_cache_core[0]: Access = 0, Miss = 0, Miss_rate = -nan, Pending_hits = 0, Reservation_fails = 0
	L1D_cache_core[1]: Access = 0, Miss = 0, Miss_rate = -nan, Pending_hits = 0, Reservation_fails = 0
	L1D_cache_core[2]: Access = 0, Miss = 0, Miss_rate = -nan, Pending_hits = 0, Reservation_fails = 0
	L1D_cache_core[3]: Access = 0, Miss = 0, Miss_rate = -nan, Pending_hits = 0, Reservation_fails = 0
	L1D_cache_core[4]: Access = 0, Miss = 0, Miss_rate = -nan, Pending_hits = 0, Reservation_fails = 0
	L1D_cache_core[5]: Access = 0, Miss = 0, Miss_rate = -nan, Pending_hits = 0, Reservation_fails = 0
	L1D_cache_core[6]: Access = 0, Miss = 0, Miss_rate = -nan, Pending_hits = 0, Reservation_fails = 0
	L1D_cache_core[7]: Access = 0, Miss = 0, Miss_rate = -nan, Pending_hits = 0, Reservation_fails = 0
	L1D_cache_core[8]: Access = 0, Miss = 0, Miss_rate = -nan, Pending_hits = 0, Reservation_fails = 0
	L1D_cache_core[9]: Access = 0, Miss = 0, Miss_rate = -nan, Pending_hits = 0, Reservation_fails = 0
	L1D_cache_core[10]: Access = 0, Miss = 0, Miss_rate = -nan, Pending_hits = 0, Reservation_fails = 0
	L1D_cache_core[11]: Access = 0, Miss = 0, Miss_rate = -nan, Pending_hits = 0, Reservation_fails = 0
	L1D_cache_core[12]: Access = 0, Miss = 0, Miss_rate = -nan, Pending_hits = 0, Reservation_fails = 0
	L1D_cache_core[13]: Access = 0, Miss = 0, Miss_rate = -nan, Pending_hits = 0, Reservation_fails = 0
	L1D_cache_core[14]: Access = 0, Miss = 0, Miss_rate = -nan, Pending_hits = 0, Reservation_fails = 0
	L1D_cache_core[15]: Access = 0, Miss = 0, Miss_rate = -nan, Pending_hits = 0, Reservation_fails = 0
	L1D_cache_core[16]: Access = 0, Miss = 0, Miss_rate = -nan, Pending_hits = 0, Reservation_fails = 0
	L1D_cache_core[17]: Access = 0, Miss = 0, Miss_rate = -nan, Pending_hits = 0, Reservation_fails = 0
	L1D_cache_core[18]: Access = 0, Miss = 0, Miss_rate = -nan, Pending_hits = 0, Reservation_fails = 0
	L1D_cache_core[19]: Access = 0, Miss = 0, Miss_rate = -nan, Pending_hits = 0, Reservation_fails = 0
	L1D_cache_core[20]: Access = 0, Miss = 0, Miss_rate = -nan, Pending_hits = 0, Reservation_fails = 0
	L1D_cache_core[21]: Access = 0, Miss = 0, Miss_rate = -nan, Pending_hits = 0, Reservation_fails = 0
	L1D_cache_core[22]: Access = 0, Miss = 0, Miss_rate = -nan, Pending_hits = 0, Reservation_fails = 0
	L1D_cache_core[23]: Access = 0, Miss = 0, Miss_rate = -nan, Pending_hits = 0, Reservation_fails = 0
	L1D_cache_core[24]: Access = 0, Miss = 0, Miss_rate = -nan, Pending_hits = 0, Reservation_fails = 0
	L1D_cache_core[25]: Access = 0, Miss = 0, Miss_rate = -nan, Pending_hits = 0, Reservation_fails = 0
	L1D_cache_core[26]: Access = 0, Miss = 0, Miss_rate = -nan, Pending_hits = 0, Reservation_fails = 0
	L1D_cache_core[27]: Access = 0, Miss = 0, Miss_rate = -nan, Pending_hits = 0, Reservation_fails = 0
	L1D_total_cache_accesses = 0
	L1D_total_cache_misses = 0
	L1D_total_cache_pending_hits = 0
	L1D_total_cache_reservation_fails = 0
	L1D_cache_data_port_util = 0.000
	L1D_cache_fill_port_util = 0.000
L1C_cache:
	L1C_total_cache_accesses = 98112
	L1C_total_cache_misses = 1792
	L1C_total_cache_miss_rate = 0.0183
	L1C_total_cache_pending_hits = 0
	L1C_total_cache_reservation_fails = 4886
L1T_cache:
	L1T_total_cache_accesses = 0
	L1T_total_cache_misses = 0
	L1T_total_cache_pending_hits = 0
	L1T_total_cache_reservation_fails = 0

Total_core_cache_stats:
	Total_core_cache_stats_breakdown[GLOBAL_ACC_R][HIT] = 0
	Total_core_cache_stats_breakdown[GLOBAL_ACC_R][HIT_RESERVED] = 0
	Total_core_cache_stats_breakdown[GLOBAL_ACC_R][MISS] = 0
	Total_core_cache_stats_breakdown[GLOBAL_ACC_R][RESERVATION_FAIL] = 0
	Total_core_cache_stats_breakdown[LOCAL_ACC_R][HIT] = 0
	Total_core_cache_stats_breakdown[LOCAL_ACC_R][HIT_RESERVED] = 0
	Total_core_cache_stats_breakdown[LOCAL_ACC_R][MISS] = 0
	Total_core_cache_stats_breakdown[LOCAL_ACC_R][RESERVATION_FAIL] = 0
	Total_core_cache_stats_breakdown[CONST_ACC_R][HIT] = 96320
	Total_core_cache_stats_breakdown[CONST_ACC_R][HIT_RESERVED] = 0
	Total_core_cache_stats_breakdown[CONST_ACC_R][MISS] = 1792
	Total_core_cache_stats_breakdown[CONST_ACC_R][RESERVATION_FAIL] = 4886
	Total_core_cache_stats_breakdown[TEXTURE_ACC_R][HIT] = 0
	Total_core_cache_stats_breakdown[TEXTURE_ACC_R][HIT_RESERVED] = 0
	Total_core_cache_stats_breakdown[TEXTURE_ACC_R][MISS] = 0
	Total_core_cache_stats_breakdown[TEXTURE_ACC_R][RESERVATION_FAIL] = 0
	Total_core_cache_stats_breakdown[GLOBAL_ACC_W][HIT] = 0
	Total_core_cache_stats_breakdown[GLOBAL_ACC_W][HIT_RESERVED] = 0
	Total_core_cache_stats_breakdown[GLOBAL_ACC_W][MISS] = 0
	Total_core_cache_stats_breakdown[GLOBAL_ACC_W][RESERVATION_FAIL] = 0
	Total_core_cache_stats_breakdown[LOCAL_ACC_W][HIT] = 0
	Total_core_cache_stats_breakdown[LOCAL_ACC_W][HIT_RESERVED] = 0
	Total_core_cache_stats_breakdown[LOCAL_ACC_W][MISS] = 0
	Total_core_cache_stats_breakdown[LOCAL_ACC_W][RESERVATION_FAIL] = 0
	Total_core_cache_stats_breakdown[L1_WRBK_ACC][HIT] = 0
	Total_core_cache_stats_breakdown[L1_WRBK_ACC][HIT_RESERVED] = 0
	Total_core_cache_stats_breakdown[L1_WRBK_ACC][MISS] = 0
	Total_core_cache_stats_breakdown[L1_WRBK_ACC][RESERVATION_FAIL] = 0
	Total_core_cache_stats_breakdown[L2_WRBK_ACC][HIT] = 0
	Total_core_cache_stats_breakdown[L2_WRBK_ACC][HIT_RESERVED] = 0
	Total_core_cache_stats_breakdown[L2_WRBK_ACC][MISS] = 0
	Total_core_cache_stats_breakdown[L2_WRBK_ACC][RESERVATION_FAIL] = 0
	Total_core_cache_stats_breakdown[INST_ACC_R][HIT] = 166327
	Total_core_cache_stats_breakdown[INST_ACC_R][HIT_RESERVED] = 0
	Total_core_cache_stats_breakdown[INST_ACC_R][MISS] = 5466
	Total_core_cache_stats_breakdown[INST_ACC_R][RESERVATION_FAIL] = 16477
	Total_core_cache_stats_breakdown[L1_WR_ALLOC_R][HIT] = 0
	Total_core_cache_stats_breakdown[L1_WR_ALLOC_R][HIT_RESERVED] = 0
	Total_core_cache_stats_breakdown[L1_WR_ALLOC_R][MISS] = 0
	Total_core_cache_stats_breakdown[L1_WR_ALLOC_R][RESERVATION_FAIL] = 0
	Total_core_cache_stats_breakdown[L2_WR_ALLOC_R][HIT] = 0
	Total_core_cache_stats_breakdown[L2_WR_ALLOC_R][HIT_RESERVED] = 0
	Total_core_cache_stats_breakdown[L2_WR_ALLOC_R][MISS] = 0
	Total_core_cache_stats_breakdown[L2_WR_ALLOC_R][RESERVATION_FAIL] = 0
	Total_core_cache_stats_breakdown[CONST_ACC_R][TOTAL_ACCESS] = 98112
	Total_core_cache_stats_breakdown[INST_ACC_R][TOTAL_ACCESS] = 171793
Shader 0 warp_id issue ditsribution:
warp_id:
0, 1, 2, 3, 4, 5, 6, 7, 8, 9, 10, 11, 12, 13, 14, 15, 16, 17, 18, 19, 20, 21, 22, 23, 24, 25, 26, 27, 28, 29, 30, 31, 32, 33, 34, 35, 36, 37, 38, 39, 40, 41, 42, 43, 44, 45, 46, 47, 48, 49, 50, 51, 52, 53, 54, 55, 56, 57, 58, 59, 60, 61, 62, 63, 
distro:
[...]
F:  1781136----T:  1784948 	 St: c011b000 Sz: 20480 	 Sm: 0 	 T: memcpy_h2d(2.573936)
F:  1784948----T:  1788378 	 St: c0120000 Sz: 16384 	 Sm: 0 	 T: memcpy_h2d(2.316003)
F:  1788378----T:  1795243 	 St: c0124000 Sz: 49152 	 Sm: 0 	 T: memcpy_h2d(4.635382)
F:  1795243----T:  1797848 	 St: c0170000 Sz: 4096 	 Sm: 0 	 T: memcpy_h2d(1.758947)
F:  1797848----T:  1806088 	 St: c0171000 Sz: 61440 	 Sm: 0 	 T: memcpy_h2d(5.563808)
F:  1806088----T:  1811603 	 St: c0150000 Sz: 36864 	 Sm: 0 	 T: memcpy_h2d(3.723835)
F:  1811603----T:  1816244 	 St: c0159000 Sz: 28672 	 Sm: 0 	 T: memcpy_h2d(3.133693)
F:  1816244----T:  1821759 	 St: c0160000 Sz: 36864 	 Sm: 0 	 T: memcpy_h2d(3.723835)
F:  1821759----T:  1826400 	 St: c0169000 Sz: 28672 	 Sm: 0 	 T: memcpy_h2d(3.133693)
F:  1826400----T:  1829200 	 St: c0180000 Sz: 8192 	 Sm: 0 	 T: memcpy_h2d(1.890614)
F:  1829200----T:  1836980 	 St: c0182000 Sz: 57344 	 Sm: 0 	 T: memcpy_h2d(5.253207)
F:  1836980----T:  1845682 	 St: c0600000 Sz: 65536 	 Sm: 0 	 T: memcpy_h2d(5.875760)
F:  1845682----T:  1853004 	 St: c0620000 Sz: 53248 	 Sm: 0 	 T: memcpy_h2d(4.943957)
F:  1853004----T:  1856090 	 St: c062d000 Sz: 12288 	 Sm: 0 	 T: memcpy_h2d(2.083727)
F:  1856090----T:  1859520 	 St: c0710000 Sz: 16384 	 Sm: 0 	 T: memcpy_h2d(2.316003)
F:  1859520----T:  1866385 	 St: c0714000 Sz: 49152 	 Sm: 0 	 T: memcpy_h2d(4.635382)
F:  1866385----T:  1872346 	 St: c06c0000 Sz: 40960 	 Sm: 0 	 T: memcpy_h2d(4.024983)
F:  1872346----T:  1876565 	 St: c06ca000 Sz: 24576 	 Sm: 0 	 T: memcpy_h2d(2.848751)
F:  1876565----T:  1882080 	 St: c06e0000 Sz: 36864 	 Sm: 0 	 T: memcpy_h2d(3.723835)
F:  1882080----T:  1891707 	 St: c06e9000 Sz: 73728 	 Sm: 0 	 T: memcpy_h2d(6.500338)
F:  1891707----T:  1895519 	 St: c06fb000 Sz: 20480 	 Sm: 0 	 T: memcpy_h2d(2.573936)
F:  1895519----T:  1900160 	 St: c0740000 Sz: 28672 	 Sm: 0 	 T: memcpy_h2d(3.133693)
F:  1900160----T:  1905675 	 St: c0747000 Sz: 36864 	 Sm: 0 	 T: memcpy_h2d(3.723835)
F:  1906147----T:  1913012 	 St: c01a0000 Sz: 49152 	 Sm: 0 	 T: memcpy_h2d(4.635382)
F:  1913012----T:  1916442 	 St: c01ac000 Sz: 16384 	 Sm: 0 	 T: memcpy_h2d(2.316003)
F:  1916442----T:  1924222 	 St: c0190000 Sz: 57344 	 Sm: 0 	 T: memcpy_h2d(5.253207)
F:  1924222----T:  1927022 	 St: c019e000 Sz: 8192 	 Sm: 0 	 T: memcpy_h2d(1.890614)
F:  1927022----T:  1929627 	 St: c01c0000 Sz: 4096 	 Sm: 0 	 T: memcpy_h2d(1.758947)
F:  1929627----T:  1937867 	 St: c01c1000 Sz: 61440 	 Sm: 0 	 T: memcpy_h2d(5.563808)
F:  1937867----T:  1945647 	 St: c01e0000 Sz: 57344 	 Sm: 0 	 T: memcpy_h2d(5.253207)
F:  1945647----T:  1948447 	 St: c01ee000 Sz: 8192 	 Sm: 0 	 T: memcpy_h2d(1.890614)
F:  1948447----T:  1954859 	 St: c01f0000 Sz: 45056 	 Sm: 0 	 T: memcpy_h2d(4.329507)
F:  1954859----T:  1958671 	 St: c01fb000 Sz: 20480 	 Sm: 0 	 T: memcpy_h2d(2.573936)
F:  1958671----T:  1962101 	 St: c07c0000 Sz: 16384 	 Sm: 0 	 T: memcpy_h2d(2.316003)
F:  1962101----T:  1968966 	 St: c07c4000 Sz: 49152 	 Sm: 0 	 T: memcpy_h2d(4.635382)
F:  1968966----T:  1974927 	 St: c0790000 Sz: 40960 	 Sm: 0 	 T: memcpy_h2d(4.024983)
F:  1974927----T:  1979146 	 St: c079a000 Sz: 24576 	 Sm: 0 	 T: memcpy_h2d(2.848751)
F:  1979146----T:  1982232 	 St: c0800000 Sz: 12288 	 Sm: 0 	 T: memcpy_h2d(2.083727)
F:  1982232----T:  1989554 	 St: c0803000 Sz: 53248 	 Sm: 0 	 T: memcpy_h2d(4.943957)
F:  1989554----T:  1994628 	 St: c0880000 Sz: 32768 	 Sm: 0 	 T: memcpy_h2d(3.426064)
F:  1994628----T:  1999702 	 St: c0888000 Sz: 32768 	 Sm: 0 	 T: memcpy_h2d(3.426064)
F:  1999702----T:  2007942 	 St: c08a0000 Sz: 61440 	 Sm: 0 	 T: memcpy_h2d(5.563808)
F:  2007942----T:  2010547 	 St: c08af000 Sz: 4096 	 Sm: 0 	 T: memcpy_h2d(1.758947)
F:  2235937----T:  2239588 	 	 	 Kl: 6 	 Sm: 0 	 T: kernel_launch(2.465226)
F:  2239588----T:  2242123 	 St: 80000000 Sz: 1 	 Sm: 0 	 T: memcpy_d2h(1.711681)
F:  2242124----T:  2244659 	 St: 80000000 Sz: 1 	 Sm: 0 	 T: memcpy_h2d(1.711681)
F:  2466810----T:  3108824 	 	 	 Kl: 7 	 Sm: 0 	 T: kernel_launch(433.500336)
F:  2467585----T:  2470190 	 St: c0050000 Sz: 4096 	 Sm: 0 	 T: memcpy_h2d(1.758947)
F:  2470190----T:  2478430 	 St: c0051000 Sz: 61440 	 Sm: 0 	 T: memcpy_h2d(5.563808)
F:  2478430----T:  2487132 	 St: c02d0000 Sz: 65536 	 Sm: 0 	 T: memcpy_h2d(5.875760)
F:  2487132----T:  2493997 	 St: c0330000 Sz: 49152 	 Sm: 0 	 T: memcpy_h2d(4.635382)
F:  2493997----T:  2497427 	 St: c033c000 Sz: 16384 	 Sm: 0 	 T: memcpy_h2d(2.316003)
F:  2497427----T:  2504749 	 St: c0310000 Sz: 53248 	 Sm: 0 	 T: memcpy_h2d(4.943957)
F:  2504749----T:  2507835 	 St: c031d000 Sz: 12288 	 Sm: 0 	 T: memcpy_h2d(2.083727)
F:  2507835----T:  2510635 	 St: c0320000 Sz: 8192 	 Sm: 0 	 T: memcpy_h2d(1.890614)
F:  2510635----T:  2518415 	 St: c0322000 Sz: 57344 	 Sm: 0 	 T: memcpy_h2d(5.253207)
F:  2518415----T:  2522634 	 St: c0350000 Sz: 24576 	 Sm: 0 	 T: memcpy_h2d(2.848751)
F:  2522634----T:  2528595 	 St: c0356000 Sz: 40960 	 Sm: 0 	 T: memcpy_h2d(4.024983)
F:  2528595----T:  2535460 	 St: c0300000 Sz: 49152 	 Sm: 0 	 T: memcpy_h2d(4.635382)
F:  2535460----T:  2538890 	 St: c030c000 Sz: 16384 	 Sm: 0 	 T: memcpy_h2d(2.316003)
F:  2538890----T:  2541690 	 St: c0360000 Sz: 8192 	 Sm: 0 	 T: memcpy_h2d(1.890614)
F:  2541690----T:  2549470 	 St: c0362000 Sz: 57344 	 Sm: 0 	 T: memcpy_h2d(5.253207)
F:  2549470----T:  2552075 	 St: c03a0000 Sz: 4096 	 Sm: 0 	 T: memcpy_h2d(1.758947)
F:  2552075----T:  2560315 	 St: c03a1000 Sz: 61440 	 Sm: 0 	 T: memcpy_h2d(5.563808)
F:  2560315----T:  2563745 	 St: c0090000 Sz: 16384 	 Sm: 0 	 T: memcpy_h2d(2.316003)
F:  2563745----T:  2570610 	 St: c0094000 Sz: 49152 	 Sm: 0 	 T: memcpy_h2d(4.635382)
F:  2570610----T:  2578850 	 St: c03f0000 Sz: 61440 	 Sm: 0 	 T: memcpy_h2d(5.563808)
F:  2578850----T:  2581455 	 St: c03ff000 Sz: 4096 	 Sm: 0 	 T: memcpy_h2d(1.758947)
F:  2581455----T:  2584541 	 St: c0390000 Sz: 12288 	 Sm: 0 	 T: memcpy_h2d(2.083727)
F:  2584541----T:  2591863 	 St: c0393000 Sz: 53248 	 Sm: 0 	 T: memcpy_h2d(4.943957)
F:  2591863----T:  2597824 	 St: c0430000 Sz: 40960 	 Sm: 0 	 T: memcpy_h2d(4.024983)
F:  2597824----T:  2602043 	 St: c043a000 Sz: 24576 	 Sm: 0 	 T: memcpy_h2d(2.848751)
F:  2602043----T:  2604843 	 St: c0440000 Sz: 8192 	 Sm: 0 	 T: memcpy_h2d(1.890614)
F:  2604843----T:  2612623 	 St: c0442000 Sz: 57344 	 Sm: 0 	 T: memcpy_h2d(5.253207)
F:  2612623----T:  2616435 	 St: c0450000 Sz: 20480 	 Sm: 0 	 T: memcpy_h2d(2.573936)
F:  2616435----T:  2622847 	 St: c0455000 Sz: 45056 	 Sm: 0 	 T: memcpy_h2d(4.329507)
F:  2622847----T:  2626277 	 St: c03b0000 Sz: 16384 	 Sm: 0 	 T: memcpy_h2d(2.316003)
F:  2626277----T:  2633142 	 St: c03b4000 Sz: 49152 	 Sm: 0 	 T: memcpy_h2d(4.635382)
F:  2633142----T:  2636572 	 St: c03c0000 Sz: 16384 	 Sm: 0 	 T: memcpy_h2d(2.316003)
F:  2636572----T:  2643437 	 St: c03c4000 Sz: 49152 	 Sm: 0 	 T: memcpy_h2d(4.635382)
F:  2643437----T:  2650759 	 St: c03d0000 Sz: 53248 	 Sm: 0 	 T: memcpy_h2d(4.943957)
F:  2650759----T:  2653845 	 St: c03dd000 Sz: 12288 	 Sm: 0 	 T: memcpy_h2d(2.083727)
F:  2653845----T:  2660710 	 St: c0470000 Sz: 49152 	 Sm: 0 	 T: memcpy_h2d(4.635382)
F:  2660710----T:  2664140 	 St: c047c000 Sz: 16384 	 Sm: 0 	 T: memcpy_h2d(2.316003)
F:  2664829----T:  2671241 	 St: c00b0000 Sz: 45056 	 Sm: 0 	 T: memcpy_h2d(4.329507)
F:  2671241----T:  2675053 	 St: c00bb000 Sz: 20480 	 Sm: 0 	 T: memcpy_h2d(2.573936)
F:  2675053----T:  2683755 	 St: c0490000 Sz: 65536 	 Sm: 0 	 T: memcpy_h2d(5.875760)
F:  2683755----T:  2687974 	 St: c04a0000 Sz: 24576 	 Sm: 0 	 T: memcpy_h2d(2.848751)
F:  2687974----T:  2693935 	 St: c04a6000 Sz: 40960 	 Sm: 0 	 T: memcpy_h2d(4.024983)
F:  2693935----T:  2701257 	 St: c04b0000 Sz: 53248 	 Sm: 0 	 T: memcpy_h2d(4.943957)
F:  2701257----T:  2704343 	 St: c04bd000 Sz: 12288 	 Sm: 0 	 T: memcpy_h2d(2.083727)
F:  2704343----T:  2707143 	 St: c0480000 Sz: 8192 	 Sm: 0 	 T: memcpy_h2d(1.890614)
F:  2707143----T:  2714923 	 St: c0482000 Sz: 57344 	 Sm: 0 	 T: memcpy_h2d(5.253207)
F:  2714923----T:  2718353 	 St: c0500000 Sz: 16384 	 Sm: 0 	 T: memcpy_h2d(2.316003)
F:  2718353----T:  2725218 	 St: c0504000 Sz: 49152 	 Sm: 0 	 T: memcpy_h2d(4.635382)
F:  2725218----T:  2729437 	 St: c0560000 Sz: 24576 	 Sm: 0 	 T: memcpy_h2d(2.848751)
F:  2729437----T:  2735398 	 St: c0566000 Sz: 40960 	 Sm: 0 	 T: memcpy_h2d(4.024983)
F:  2735398----T:  2742263 	 St: c05b0000 Sz: 49152 	 Sm: 0 	 T: memcpy_h2d(4.635382)
F:  2742263----T:  2745693 	 St: c05bc000 Sz: 16384 	 Sm: 0 	 T: memcpy_h2d(2.316003)
F:  2745693----T:  2753473 	 St: c0550000 Sz: 57344 	 Sm: 0 	 T: memcpy_h2d(5.253207)
F:  2753473----T:  2756273 	 St: c055e000 Sz: 8192 	 Sm: 0 	 T: memcpy_h2d(1.890614)
F:  2756273----T:  2761347 	 St: c0570000 Sz: 32768 	 Sm: 0 	 T: memcpy_h2d(3.426064)
F:  2761347----T:  2766421 	 St: c0578000 Sz: 32768 	 Sm: 0 	 T: memcpy_h2d(3.426064)
F:  2766421----T:  2774201 	 St: c05d0000 Sz: 57344 	 Sm: 0 	 T: memcpy_h2d(5.253207)
F:  2774201----T:  2777001 	 St: c05de000 Sz: 8192 	 Sm: 0 	 T: memcpy_h2d(1.890614)
F:  2777001----T:  2782962 	 St: c05f0000 Sz: 40960 	 Sm: 0 	 T: memcpy_h2d(4.024983)
F:  2782962----T:  2787181 	 St: c05fa000 Sz: 24576 	 Sm: 0 	 T: memcpy_h2d(2.848751)
F:  2787181----T:  2789981 	 St: c0610000 Sz: 8192 	 Sm: 0 	 T: memcpy_h2d(1.890614)
F:  2789981----T:  2797761 	 St: c0612000 Sz: 57344 	 Sm: 0 	 T: memcpy_h2d(5.253207)
F:  2797761----T:  2801191 	 St: c04d0000 Sz: 16384 	 Sm: 0 	 T: memcpy_h2d(2.316003)
F:  2801191----T:  2805832 	 St: c04d4000 Sz: 28672 	 Sm: 0 	 T: memcpy_h2d(3.133693)
F:  2805832----T:  2816854 	 St: c04db000 Sz: 86016 	 Sm: 0 	 T: memcpy_h2d(7.442269)
F:  2817402----T:  2821214 	 St: c0130000 Sz: 20480 	 Sm: 0 	 T: memcpy_h2d(2.573936)
F:  2821214----T:  2827626 	 St: c0135000 Sz: 45056 	 Sm: 0 	 T: memcpy_h2d(4.329507)
F:  2827626----T:  2830712 	 St: c0140000 Sz: 12288 	 Sm: 0 	 T: memcpy_h2d(2.083727)
F:  2830712----T:  2838034 	 St: c0143000 Sz: 53248 	 Sm: 0 	 T: memcpy_h2d(4.943957)
F:  2838034----T:  2842253 	 St: c0630000 Sz: 24576 	 Sm: 0 	 T: memcpy_h2d(2.848751)
F:  2842253----T:  2848214 	 St: c0636000 Sz: 40960 	 Sm: 0 	 T: memcpy_h2d(4.024983)
F:  2848214----T:  2852026 	 St: c06d0000 Sz: 20480 	 Sm: 0 	 T: memcpy_h2d(2.573936)
F:  2852026----T:  2858438 	 St: c06d5000 Sz: 45056 	 Sm: 0 	 T: memcpy_h2d(4.329507)
F:  2858438----T:  2861524 	 St: c0730000 Sz: 12288 	 Sm: 0 	 T: memcpy_h2d(2.083727)
F:  2861524----T:  2868846 	 St: c0733000 Sz: 53248 	 Sm: 0 	 T: memcpy_h2d(4.943957)
F:  2868846----T:  2875258 	 St: c0700000 Sz: 45056 	 Sm: 0 	 T: memcpy_h2d(4.329507)
F:  2875258----T:  2879070 	 St: c070b000 Sz: 20480 	 Sm: 0 	 T: memcpy_h2d(2.573936)
F:  2879070----T:  2886850 	 St: c0720000 Sz: 57344 	 Sm: 0 	 T: memcpy_h2d(5.253207)
F:  2886850----T:  2889650 	 St: c072e000 Sz: 8192 	 Sm: 0 	 T: memcpy_h2d(1.890614)
F:  2889650----T:  2895165 	 St: c0760000 Sz: 36864 	 Sm: 0 	 T: memcpy_h2d(3.723835)
F:  2895165----T:  2899806 	 St: c0769000 Sz: 28672 	 Sm: 0 	 T: memcpy_h2d(3.133693)
F:  2899806----T:  2904025 	 St: c0770000 Sz: 24576 	 Sm: 0 	 T: memcpy_h2d(2.848751)
F:  2904025----T:  2909986 	 St: c0776000 Sz: 40960 	 Sm: 0 	 T: memcpy_h2d(4.024983)
F:  2909986----T:  2917766 	 St: c0650000 Sz: 57344 	 Sm: 0 	 T: memcpy_h2d(5.253207)
F:  2917766----T:  2920566 	 St: c065e000 Sz: 8192 	 Sm: 0 	 T: memcpy_h2d(1.890614)
F:  2920566----T:  2923366 	 St: c0660000 Sz: 8192 	 Sm: 0 	 T: memcpy_h2d(1.890614)
F:  2923366----T:  2931146 	 St: c0662000 Sz: 57344 	 Sm: 0 	 T: memcpy_h2d(5.253207)
F:  2931146----T:  2934958 	 St: c0670000 Sz: 20480 	 Sm: 0 	 T: memcpy_h2d(2.573936)
F:  2934958----T:  2940919 	 St: c0675000 Sz: 40960 	 Sm: 0 	 T: memcpy_h2d(4.024983)
F:  2940919----T:  2943524 	 St: c067f000 Sz: 4096 	 Sm: 0 	 T: memcpy_h2d(1.758947)
F:  2943524----T:  2946324 	 St: c0680000 Sz: 8192 	 Sm: 0 	 T: memcpy_h2d(1.890614)
F:  2946324----T:  2949754 	 St: c0682000 Sz: 16384 	 Sm: 0 	 T: memcpy_h2d(2.316003)
F:  2949754----T:  2955715 	 St: c0686000 Sz: 40960 	 Sm: 0 	 T: memcpy_h2d(4.024983)
F:  2955715----T:  2960356 	 St: c0690000 Sz: 28672 	 Sm: 0 	 T: memcpy_h2d(3.133693)
F:  2960356----T:  2969520 	 St: c0697000 Sz: 69632 	 Sm: 0 	 T: memcpy_h2d(6.187711)
F:  2969520----T:  2974594 	 St: c06a8000 Sz: 32768 	 Sm: 0 	 T: memcpy_h2d(3.426064)
F:  2975292----T:  2983072 	 St: c01d0000 Sz: 57344 	 Sm: 0 	 T: memcpy_h2d(5.253207)
F:  2983072----T:  2985872 	 St: c01de000 Sz: 8192 	 Sm: 0 	 T: memcpy_h2d(1.890614)
F:  2985872----T:  2988958 	 St: c0820000 Sz: 12288 	 Sm: 0 	 T: memcpy_h2d(2.083727)
F:  2988958----T:  2996280 	 St: c0823000 Sz: 53248 	 Sm: 0 	 T: memcpy_h2d(4.943957)
F:  2996280----T:  3004060 	 St: c07a0000 Sz: 57344 	 Sm: 0 	 T: memcpy_h2d(5.253207)
F:  3004060----T:  3006860 	 St: c07ae000 Sz: 8192 	 Sm: 0 	 T: memcpy_h2d(1.890614)
F:  3006860----T:  3009660 	 St: c07e0000 Sz: 8192 	 Sm: 0 	 T: memcpy_h2d(1.890614)
F:  3009660----T:  3017440 	 St: c07e2000 Sz: 57344 	 Sm: 0 	 T: memcpy_h2d(5.253207)
F:  3017440----T:  3025680 	 St: c0780000 Sz: 61440 	 Sm: 0 	 T: memcpy_h2d(5.563808)
F:  3025680----T:  3028285 	 St: c078f000 Sz: 4096 	 Sm: 0 	 T: memcpy_h2d(1.758947)
F:  3028285----T:  3036987 	 St: c07b0000 Sz: 65536 	 Sm: 0 	 T: memcpy_h2d(5.875760)
F:  3036987----T:  3039592 	 St: c0830000 Sz: 4096 	 Sm: 0 	 T: memcpy_h2d(1.758947)
F:  3039592----T:  3047832 	 St: c0831000 Sz: 61440 	 Sm: 0 	 T: memcpy_h2d(5.563808)
F:  3047832----T:  3052906 	 St: c0860000 Sz: 32768 	 Sm: 0 	 T: memcpy_h2d(3.426064)
F:  3052906----T:  3057980 	 St: c0868000 Sz: 32768 	 Sm: 0 	 T: memcpy_h2d(3.426064)
F:  3057980----T:  3062621 	 St: c0870000 Sz: 28672 	 Sm: 0 	 T: memcpy_h2d(3.133693)
F:  3062621----T:  3068136 	 St: c0877000 Sz: 36864 	 Sm: 0 	 T: memcpy_h2d(3.723835)
F:  3068136----T:  3073651 	 St: c0890000 Sz: 36864 	 Sm: 0 	 T: memcpy_h2d(3.723835)
F:  3073651----T:  3078292 	 St: c0899000 Sz: 28672 	 Sm: 0 	 T: memcpy_h2d(3.133693)
F:  3078292----T:  3082933 	 St: c08b0000 Sz: 28672 	 Sm: 0 	 T: memcpy_h2d(3.133693)
F:  3082933----T:  3088448 	 St: c08b7000 Sz: 36864 	 Sm: 0 	 T: memcpy_h2d(3.723835)
F:  3088448----T:  3094409 	 St: c0840000 Sz: 40960 	 Sm: 0 	 T: memcpy_h2d(4.024983)
F:  3094409----T:  3100370 	 St: c084a000 Sz: 40960 	 Sm: 0 	 T: memcpy_h2d(4.024983)
F:  3100370----T:  3104182 	 St: c0854000 Sz: 20480 	 Sm: 0 	 T: memcpy_h2d(2.573936)
F:  3104182----T:  3108823 	 St: c0859000 Sz: 28672 	 Sm: 0 	 T: memcpy_h2d(3.133693)
F:  3330974----T:  3334786 	 	 	 Kl: 8 	 Sm: 0 	 T: kernel_launch(2.573936)
F:  3334786----T:  3337321 	 St: 80000000 Sz: 1 	 Sm: 0 	 T: memcpy_d2h(1.711681)
F:  3337322----T:  3339857 	 St: 80000000 Sz: 1 	 Sm: 0 	 T: memcpy_h2d(1.711681)
F:  3562008----T:  3682930 	 	 	 Kl: 9 	 Sm: 0 	 T: kernel_launch(81.648888)
F:  3569623----T:  3572709 	 St: c04f0000 Sz: 12288 	 Sm: 0 	 T: memcpy_h2d(2.083727)
F:  3572709----T:  3580031 	 St: c04f3000 Sz: 53248 	 Sm: 0 	 T: memcpy_h2d(4.943957)
F:  3580031----T:  3582636 	 St: c0510000 Sz: 4096 	 Sm: 0 	 T: memcpy_h2d(1.758947)
F:  3582636----T:  3590876 	 St: c0511000 Sz: 61440 	 Sm: 0 	 T: memcpy_h2d(5.563808)
F:  3590876----T:  3594306 	 St: c0540000 Sz: 16384 	 Sm: 0 	 T: memcpy_h2d(2.316003)
F:  3594306----T:  3601171 	 St: c0544000 Sz: 49152 	 Sm: 0 	 T: memcpy_h2d(4.635382)
F:  3602275----T:  3606087 	 St: c05a0000 Sz: 20480 	 Sm: 0 	 T: memcpy_h2d(2.573936)
F:  3606087----T:  3612499 	 St: c05a5000 Sz: 45056 	 Sm: 0 	 T: memcpy_h2d(4.329507)
F:  3612499----T:  3618911 	 St: c05e0000 Sz: 45056 	 Sm: 0 	 T: memcpy_h2d(4.329507)
F:  3618911----T:  3622723 	 St: c05eb000 Sz: 20480 	 Sm: 0 	 T: memcpy_h2d(2.573936)
F:  3622723----T:  3625809 	 St: c0640000 Sz: 12288 	 Sm: 0 	 T: memcpy_h2d(2.083727)
F:  3625809----T:  3633131 	 St: c0643000 Sz: 53248 	 Sm: 0 	 T: memcpy_h2d(4.943957)
F:  3633131----T:  3641833 	 St: c06b0000 Sz: 65536 	 Sm: 0 	 T: memcpy_h2d(5.875760)
F:  3642992----T:  3647211 	 St: c0750000 Sz: 24576 	 Sm: 0 	 T: memcpy_h2d(2.848751)
F:  3647211----T:  3653172 	 St: c0756000 Sz: 40960 	 Sm: 0 	 T: memcpy_h2d(4.024983)
F:  3653172----T:  3656984 	 St: c07f0000 Sz: 20480 	 Sm: 0 	 T: memcpy_h2d(2.573936)
F:  3656984----T:  3663396 	 St: c07f5000 Sz: 45056 	 Sm: 0 	 T: memcpy_h2d(4.329507)
F:  3663396----T:  3666482 	 St: c0810000 Sz: 12288 	 Sm: 0 	 T: memcpy_h2d(2.083727)
F:  3666482----T:  3673804 	 St: c0813000 Sz: 53248 	 Sm: 0 	 T: memcpy_h2d(4.943957)
F:  3905080----T:  3912808 	 	 	 Kl: 10 	 Sm: 0 	 T: kernel_launch(5.218096)
F:  3912808----T:  3915343 	 St: 80000000 Sz: 1 	 Sm: 0 	 T: memcpy_d2h(1.711681)
F:  3915344----T:  3917879 	 St: 80000000 Sz: 1 	 Sm: 0 	 T: memcpy_h2d(1.711681)
F:  4140030----T:  4179342 	 	 	 Kl: 11 	 Sm: 0 	 T: kernel_launch(26.544228)
F:  4401492----T:  4416234 	 	 	 Kl: 12 	 Sm: 0 	 T: kernel_launch(9.954085)
F:  4416234----T:  4418769 	 St: 80000000 Sz: 1 	 Sm: 0 	 T: memcpy_d2h(1.711681)
F:  4418770----T:  4421305 	 St: 80000000 Sz: 1 	 Sm: 0 	 T: memcpy_h2d(1.711681)
F:  4643456----T:  4770407 	 	 	 Kl: 13 	 Sm: 0 	 T: kernel_launch(85.719788)
F:  4992557----T:  5007739 	 	 	 Kl: 14 	 Sm: 0 	 T: kernel_launch(10.251182)
F:  5007739----T:  5010274 	 St: 80000000 Sz: 1 	 Sm: 0 	 T: memcpy_d2h(1.711681)
F:  5010275----T:  5012810 	 St: 80000000 Sz: 1 	 Sm: 0 	 T: memcpy_h2d(1.711681)
F:  5234961----T:  5539223 	 	 	 Kl: 15 	 Sm: 0 	 T: kernel_launch(205.443619)
F:  5761373----T:  5776473 	 	 	 Kl: 16 	 Sm: 0 	 T: kernel_launch(10.195813)
F:  5776473----T:  5779008 	 St: 80000000 Sz: 1 	 Sm: 0 	 T: memcpy_d2h(1.711681)
F:  5779009----T:  5781544 	 St: 80000000 Sz: 1 	 Sm: 0 	 T: memcpy_h2d(1.711681)
F:  6003695----T:  6191275 	 	 	 Kl: 17 	 Sm: 0 	 T: kernel_launch(126.657661)
F:  6413425----T:  6423719 	 	 	 Kl: 18 	 Sm: 0 	 T: kernel_launch(6.950709)
F:  6423719----T:  6426254 	 St: 80000000 Sz: 1 	 Sm: 0 	 T: memcpy_d2h(1.711681)
F:  6426255----T:  6428790 	 St: 80000000 Sz: 1 	 Sm: 0 	 T: memcpy_h2d(1.711681)
F:  6650941----T:  6670903 	 	 	 Kl: 19 	 Sm: 0 	 T: kernel_launch(13.478730)
F:  6893053----T:  6896295 	 	 	 Kl: 20 	 Sm: 0 	 T: kernel_launch(2.189061)
F:  6896295----T:  6898830 	 St: 80000000 Sz: 1 	 Sm: 0 	 T: memcpy_d2h(1.711681)
F:  6898831----T:  6901366 	 St: 80000000 Sz: 1 	 Sm: 0 	 T: memcpy_h2d(1.711681)
F:  7123517----T:  7128488 	 	 	 Kl: 21 	 Sm: 0 	 T: kernel_launch(3.356516)
F:  7350638----T:  7353815 	 	 	 Kl: 22 	 Sm: 0 	 T: kernel_launch(2.145172)
F:  7353815----T:  7356350 	 St: 80000000 Sz: 1 	 Sm: 0 	 T: memcpy_d2h(1.711681)
F:  7356351----T:  7358956 	 St: 0 Sz: 4096 	 Sm: 0 	 T: device_sync(1.758947)
F:  7356351----T:  7364591 	 St: 0 Sz: 61440 	 Sm: 0 	 T: device_sync(5.563808)
F:  7367196----T:  7369801 	 St: 0 Sz: 4096 	 Sm: 0 	 T: device_sync(1.758947)
F:  7367196----T:  7375436 	 St: 0 Sz: 61440 	 Sm: 0 	 T: device_sync(5.563808)
F:  7378041----T:  7380646 	 St: 0 Sz: 4096 	 Sm: 0 	 T: device_sync(1.758947)
F:  7378041----T:  7393736 	 St: 0 Sz: 126976 	 Sm: 0 	 T: device_sync(10.597569)
F:  7396341----T:  7398946 	 St: 0 Sz: 4096 	 Sm: 0 	 T: device_sync(1.758947)
F:  7396341----T:  7427064 	 St: 0 Sz: 258048 	 Sm: 0 	 T: device_sync(20.744766)
F:  7429669----T:  7432274 	 St: 0 Sz: 4096 	 Sm: 0 	 T: device_sync(1.758947)
F:  7429669----T:  7490505 	 St: 0 Sz: 520192 	 Sm: 0 	 T: device_sync(41.077652)
F:  7493110----T:  7495715 	 St: 0 Sz: 4096 	 Sm: 0 	 T: device_sync(1.758947)
F:  7493110----T:  7584071 	 St: 0 Sz: 782336 	 Sm: 0 	 T: device_sync(61.418636)
Tot_prefetch_time: 0(cycle), 0.000000(us)
Tot_kernel_exec_time: 2413259(cycle), 1629.479370(us)
Tot_kernel_exec_time_and_fault_time: 13209749(cycle), 8919.479492(us)
Tot_memcpy_h2d_time: 1640172(cycle), 1107.476074(us)
Tot_memcpy_d2h_time: 27885(cycle), 18.828495(us)
Tot_memcpy_time: 1668057(cycle), 1126.304565(us)
Tot_devicesync_time: 230325(cycle), 155.519913(us)
Tot_writeback_time: 0(cycle), 0.000000(us)
Tot_dma_time: 0(cycle), 0.000000(us)
Tot_memcpy_d2h_sync_wb_time: 258210(cycle), 174.348419(us)
GPGPU-Sim: *** exit detected ***
