

        *** GPGPU-Sim Simulator Version 3.2.2  [build gpgpu-sim_git-commit-1c1adf09f9d1bccf70ff97255c2b46b40ff0e800_modified_0] ***


GPGPU-Sim PTX: simulation mode 0 (can change with PTX_SIM_MODE_FUNC environment variable:
               1=functional simulation only, 0=detailed performance simulator)
GPGPU-Sim: Configuration options:

-network_mode                           1 # Interconnection network mode
-inter_config_file   config_fermi_islip.icnt # Interconnection network config file
-gpgpu_ptx_use_cuobjdump                    1 # Use cuobjdump to extract ptx and sass from binaries
-gpgpu_experimental_lib_support                    0 # Try to extract code from cuda libraries [Broken because of unknown cudaGetExportTable]
-gpgpu_ptx_convert_to_ptxplus                    0 # Convert SASS (native ISA) to ptxplus and run ptxplus
-gpgpu_ptx_force_max_capability                   20 # Force maximum compute capability
-gpgpu_ptx_inst_debug_to_file                    0 # Dump executed instructions' debug information to file
-gpgpu_ptx_inst_debug_file       inst_debug.txt # Executed instructions' debug output file
-gpgpu_ptx_inst_debug_thread_uid                    1 # Thread UID for executed instructions' debug output
-gpgpu_simd_model                       1 # 1 = post-dominator
-gpgpu_shader_core_pipeline              2048:32 # shader core pipeline config, i.e., {<nthread>:<warpsize>}
-gpgpu_tex_cache:l1  16:128:24,L:R:m:N:L,F:128:4,128:2 # per-shader L1 texture cache  (READ-ONLY) config  {<nsets>:<bsize>:<assoc>,<rep>:<wr>:<alloc>:<wr_alloc>,<mshr>:<N>:<merge>,<mq>:<rf>}
-gpgpu_const_cache:l1 128:64:2,L:R:f:N:L,A:2:64,4 # per-shader L1 constant memory cache  (READ-ONLY) config  {<nsets>:<bsize>:<assoc>,<rep>:<wr>:<alloc>:<wr_alloc>,<mshr>:<N>:<merge>,<mq>} 
-gpgpu_cache:il1     8:128:4,L:R:f:N:L,A:2:48,4 # shader L1 instruction cache config  {<nsets>:<bsize>:<assoc>,<rep>:<wr>:<alloc>:<wr_alloc>,<mshr>:<N>:<merge>,<mq>} 
-gpgpu_cache:dl1     64:128:6,L:L:m:N:H,A:128:8,8 # per-shader L1 data cache config  {<nsets>:<bsize>:<assoc>,<rep>:<wr>:<alloc>:<wr_alloc>,<mshr>:<N>:<merge>,<mq> | none}
-gpgpu_cache:dl1PrefL1                 none # per-shader L1 data cache config  {<nsets>:<bsize>:<assoc>,<rep>:<wr>:<alloc>:<wr_alloc>,<mshr>:<N>:<merge>,<mq> | none}
-gpgpu_cache:dl1PrefShared                 none # per-shader L1 data cache config  {<nsets>:<bsize>:<assoc>,<rep>:<wr>:<alloc>:<wr_alloc>,<mshr>:<N>:<merge>,<mq> | none}
-gmem_skip_L1D                          1 # global memory access skip L1D cache (implements -Xptxas -dlcm=cg, default=no skip)
-gpgpu_perfect_mem                      0 # enable perfect memory mode (no cache miss)
-n_regfile_gating_group                    4 # group of lanes that should be read/written together)
-gpgpu_clock_gated_reg_file                    0 # enable clock gated reg file for power calculations
-gpgpu_clock_gated_lanes                    0 # enable clock gated lanes for power calculations
-gpgpu_shader_registers                65536 # Number of registers per shader core. Limits number of concurrent CTAs. (default 8192)
-gpgpu_shader_cta                      32 # Maximum number of concurrent CTAs in shader (default 8)
-gpgpu_num_cta_barriers                   16 # Maximum number of named barriers per CTA (default 16)
-gpgpu_n_clusters                      28 # number of processing clusters
-gpgpu_n_cores_per_cluster                    1 # number of simd cores per cluster
-gpgpu_n_cluster_ejection_buffer_size                    8 # number of packets in ejection buffer
-gpgpu_n_ldst_response_buffer_size                    2 # number of response packets in ld/st unit ejection buffer
-gpgpu_shmem_size                   16384 # Size of shared memory per shader core (default 16kB)
-gpgpu_shmem_size                   98304 # Size of shared memory per shader core (default 16kB)
-gpgpu_shmem_size_PrefL1                16384 # Size of shared memory per shader core (default 16kB)
-gpgpu_shmem_size_PrefShared                16384 # Size of shared memory per shader core (default 16kB)
-gpgpu_shmem_num_banks                   32 # Number of banks in the shared memory in each shader core (default 16)
-gpgpu_shmem_limited_broadcast                    0 # Limit shared memory to do one broadcast per cycle (default on)
-gpgpu_shmem_warp_parts                    1 # Number of portions a warp is divided into for shared memory bank conflict check 
-gpgpu_warpdistro_shader                   -1 # Specify which shader core to collect the warp size distribution from
-gpgpu_warp_issue_shader                    0 # Specify which shader core to collect the warp issue distribution from
-gpgpu_local_mem_map                    1 # Mapping from local memory space address to simulated GPU physical address space (default = enabled)
-gpgpu_num_reg_banks                   32 # Number of register banks (default = 8)
-gpgpu_reg_bank_use_warp_id                    0 # Use warp ID in mapping registers to banks (default = off)
-gpgpu_operand_collector_num_units_sp                   20 # number of collector units (default = 4)
-gpgpu_operand_collector_num_units_sfu                    4 # number of collector units (default = 4)
-gpgpu_operand_collector_num_units_mem                    8 # number of collector units (default = 2)
-gpgpu_operand_collector_num_units_gen                    0 # number of collector units (default = 0)
-gpgpu_operand_collector_num_in_ports_sp                    4 # number of collector unit in ports (default = 1)
-gpgpu_operand_collector_num_in_ports_sfu                    1 # number of collector unit in ports (default = 1)
-gpgpu_operand_collector_num_in_ports_mem                    1 # number of collector unit in ports (default = 1)
-gpgpu_operand_collector_num_in_ports_gen                    0 # number of collector unit in ports (default = 0)
-gpgpu_operand_collector_num_out_ports_sp                    4 # number of collector unit in ports (default = 1)
-gpgpu_operand_collector_num_out_ports_sfu                    1 # number of collector unit in ports (default = 1)
-gpgpu_operand_collector_num_out_ports_mem                    1 # number of collector unit in ports (default = 1)
-gpgpu_operand_collector_num_out_ports_gen                    0 # number of collector unit in ports (default = 0)
-gpgpu_coalesce_arch                   13 # Coalescing arch (default = 13, anything else is off for now)
-gpgpu_num_sched_per_core                    2 # Number of warp schedulers per core
-gpgpu_max_insn_issue_per_warp                    2 # Max number of instructions that can be issued per warp in one cycle by scheduler
-gpgpu_simt_core_sim_order                    1 # Select the simulation order of cores in a cluster (0=Fix, 1=Round-Robin)
-gpgpu_pipeline_widths        4,1,1,4,1,1,6 # Pipeline widths ID_OC_SP,ID_OC_SFU,ID_OC_MEM,OC_EX_SP,OC_EX_SFU,OC_EX_MEM,EX_WB
-gpgpu_num_sp_units                     4 # Number of SP units (default=1)
-gpgpu_num_sfu_units                    1 # Number of SF units (default=1)
-gpgpu_num_mem_units                    1 # Number if ldst units (default=1) WARNING: not hooked up to anything
-gpgpu_scheduler                      gto # Scheduler configuration: < lrr | gto | two_level_active > If two_level_active:<num_active_warps>:<inner_prioritization>:<outer_prioritization>For complete list of prioritization values see shader.h enum scheduler_prioritization_typeDefault: gto
-gpgpu_concurrent_kernel_sm                    0 # Support concurrent kernels on a SM (default = disabled)
-tlb_size                            4096 # Number of tlb entries per SM.
-gpgpu_dram_scheduler                    1 # 0 = fifo, 1 = FR-FCFS (defaul)
-gpgpu_dram_partition_queues              8:8:8:8 # i2$:$2d:d2$:$2i
-l2_ideal                               0 # Use a ideal L2 cache that always hit
-gpgpu_cache:dl2     64:128:16,L:B:m:W:L,A:1024:1024,4:0,32 # unified banked L2 data cache config  {<nsets>:<bsize>:<assoc>,<rep>:<wr>:<alloc>:<wr_alloc>,<mshr>:<N>:<merge>,<mq>}
-gpgpu_cache:dl2_texture_only                    0 # L2 cache used for texture only
-gpgpu_n_mem                           11 # number of memory modules (e.g. memory controllers) in gpu
-gpgpu_n_sub_partition_per_mchannel                    2 # number of memory subpartition in each memory module
-gpgpu_n_mem_per_ctrlr                    1 # number of memory chips per memory controller
-gpgpu_memlatency_stat                   14 # track and display latency statistics 0x2 enables MC, 0x4 enables queue logs
-gpgpu_frfcfs_dram_sched_queue_size                   64 # 0 = unlimited (default); # entries per chip
-gpgpu_dram_return_queue_size                  116 # 0 = unlimited (default); # entries per chip
-gpgpu_dram_buswidth                    4 # default = 4 bytes (8 bytes per cycle at DDR)
-gpgpu_dram_burst_length                    8 # Burst length of each DRAM request (default = 4 data bus cycle)
-dram_data_command_freq_ratio                    4 # Frequency ratio between DRAM data bus and command bus (default = 2 times, i.e. DDR)
-gpgpu_dram_timing_opt nbk=16:CCD=2:RRD=6:RCD=12:RAS=28:RP=12:RC=40: CL=12:WL=4:CDLR=5:WR=12:nbkgrp=1:CCDL=0:RTPL=0 # DRAM timing parameters = {nbk:tCCD:tRRD:tRCD:tRAS:tRP:tRC:CL:WL:tCDLR:tWR:nbkgrp:tCCDL:tRTPL}
-rop_latency                          120 # ROP queue latency (default 85)
-dram_latency                         100 # DRAM latency (default 30)
-gpgpu_mem_addr_mapping dramid@8;00000000.00000000.00000000.00000000.0000RRRR.RRRRRRRR.RBBBCCCC.BCCSSSSS # mapping memory address to dram model {dramid@<start bit>;<memory address map>}
-gpgpu_mem_addr_test                    0 # run sweep test to check address mapping for aliased address
-gpgpu_mem_address_mask                    1 # 0 = old addressing mask, 1 = new addressing mask, 2 = new add. mask + flipped bank sel and chip sel bits
-gpuwattch_xml_file  gpuwattch_geforcegtx1080ti.xml # GPUWattch XML file
-power_simulation_enabled                    1 # Turn on power simulator (1=On, 0=Off)
-power_per_cycle_dump                    0 # Dump detailed power output each cycle
-power_trace_enabled                    0 # produce a file for the power trace (1=On, 0=Off)
-power_trace_zlevel                     6 # Compression level of the power trace output log (0=no comp, 9=highest)
-steady_power_levels_enabled                    0 # produce a file for the steady power levels (1=On, 0=Off)
-steady_state_definition                  8:4 # allowed deviation:number of samples
-gpgpu_max_cycle                        0 # terminates gpu simulation early (0 = no limit)
-gpgpu_max_insn                         0 # terminates gpu simulation early (0 = no limit)
-gpgpu_max_cta                          0 # terminates gpu simulation early (0 = no limit)
-gpgpu_runtime_stat                   500 # display runtime statistics such as dram utilization {<freq>:<flag>}
-liveness_message_freq                    1 # Minimum number of seconds between simulation liveness messages (0 = always print)
-gpgpu_flush_l1_cache                    0 # Flush L1 cache at the end of each kernel call
-gpgpu_flush_l2_cache                    0 # Flush L2 cache at the end of each kernel call
-gpgpu_deadlock_detect                    0 # Stop the simulation at deadlock (1=on (default), 0=off)
-gpgpu_ptx_instruction_classification                    0 # if enabled will classify ptx instruction types per kernel (Max 255 kernels now)
-gpgpu_ptx_sim_mode                     0 # Select between Performance (default) or Functional simulation (1)
-gpgpu_clock_domains 1481.0:2962.0:1481.0:2750.0 # Clock Domain Frequencies in MhZ {<Core Clock>:<ICNT Clock>:<L2 Clock>:<DRAM Clock>}
-gpgpu_max_concurrent_kernel                    8 # maximum kernels that can run concurrently on GPU
-gpgpu_cflog_interval                    0 # Interval between each snapshot in control flow logger
-visualizer_enabled                     0 # Turn on visualizer output (1=On, 0=Off)
-visualizer_outputfile                 NULL # Specifies the output log file for visualizer
-visualizer_zlevel                      6 # Compression level of the visualizer output log (0=no comp, 9=highest)
-trace_enabled                          0 # Turn on traces
-trace_components                    none # comma seperated list of traces to enable. Complete list found in trace_streams.tup. Default none
-trace_sampling_core                    0 # The core which is printed using CORE_DPRINTF. Default 0
-trace_sampling_memory_partition                   -1 # The memory partition which is printed using MEMPART_DPRINTF. Default -1 (i.e. all)
-gddr_size                            1GB # Size of GDDR in MB/GB.(GLOBAL_HEAP_START, GLOBAL_HEAP_START + gddr_size) would be used for unmanged memory, (GLOBAL_HEAP_START + gddr_size, GLOBAL_HEAP_START + gddr_size*2) would be used for managed memory. 
-page_table_walk_latency                  100 # Average page table walk latency (in core cycle).
-eviction_policy                        0 # Select page eviction policy
-invalidate_clean                       0 # Should directly invalidate clean pages
-reserve_accessed_page_percent                    0 # Percentage of accessed pages reserved from eviction in hope that they will be accessed in next iteration.
-percentage_of_free_page_buffer                    0 # Percentage of free page buffer to trigger the page eviction.
-page_size                            4KB # GDDR page size, only 4KB/2MB avaliable.
-pcie_bandwidth                  16.0GB/s # PCI-e bandwidth per direction, in GB/s.
-enable_dma                             0 # Enable direct access to CPU memory
-multiply_dma_penalty                    2 # Oversubscription Multiplicative Penalty Factor for Adaptive DMA
-migrate_threshold                      8 # Access counter threshold for migrating the page from cpu to gpu
-sim_prof_enable                        1 # Enable gpgpu-sim profiler
-hardware_prefetch                      2 # Select gpgpu-sim hardware prefetcher
-hwprefetch_oversub                     1 # Select gpgpu-sim hardware prefetcher under over-subscription
-page_fault_latency                 66645 # Average fault latency (in core cycle).
-enable_accurate_simulation                    0 # Enable page fault functional simulation.
-enable_ptx_file_line_stats                    1 # Turn on PTX source line statistic profiling. (1 = On)
-ptx_line_stats_filename gpgpu_inst_stats.txt # Output file for PTX source line statistics.
-gpgpu_kernel_launch_latency               222150 # Kernel launch latency in cycles. Default: 0
-gpgpu_cdp_enabled                      0 # Turn on CDP
-save_embedded_ptx                      0 # saves ptx files embedded in binary as <n>.ptx
-keep                                   0 # keep intermediate files created by GPGPU-Sim when interfacing with external programs
-gpgpu_ptx_save_converted_ptxplus                    0 # Saved converted ptxplus to a file
-ptx_opcode_latency_int         4,13,4,5,145 # Opcode latencies for integers <ADD,MAX,MUL,MAD,DIV>Default 1,1,19,25,145
-ptx_opcode_latency_fp          4,13,4,5,39 # Opcode latencies for single precision floating points <ADD,MAX,MUL,MAD,DIV>Default 1,1,1,1,30
-ptx_opcode_latency_dp         8,19,8,8,330 # Opcode latencies for double precision floating points <ADD,MAX,MUL,MAD,DIV>Default 8,8,8,8,335
-ptx_opcode_initiation_int            1,2,2,2,8 # Opcode initiation intervals for integers <ADD,MAX,MUL,MAD,DIV>Default 1,1,4,4,32
-ptx_opcode_initiation_fp            1,2,1,1,4 # Opcode initiation intervals for single precision floating points <ADD,MAX,MUL,MAD,DIV>Default 1,1,1,1,5
-ptx_opcode_initiation_dp          1,2,1,1,130 # Opcode initiation intervals for double precision floating points <ADD,MAX,MUL,MAD,DIV>Default 8,8,8,8,130
-cdp_latency         7200,8000,100,12000,1600 # CDP API latency <cudaStreamCreateWithFlags, cudaGetParameterBufferV2_init_perWarp, cudaGetParameterBufferV2_perKernel, cudaLaunchDeviceV2_init_perWarp, cudaLaunchDevicV2_perKernel>Default 7200,8000,100,12000,1600
DRAM Timing Options:
nbk                                    16 # number of banks
CCD                                     2 # column to column delay
RRD                                     6 # minimal delay between activation of rows in different banks
RCD                                    12 # row to column delay
RAS                                    28 # time needed to activate row
RP                                     12 # time needed to precharge (deactivate) row
RC                                     40 # row cycle time
CDLR                                    5 # switching from write to read (changes tWTR)
WR                                     12 # last data-in to row precharge
CL                                     12 # CAS latency
WL                                      4 # Write latency
nbkgrp                                  1 # number of bank groups
CCDL                                    0 # column to column delay between accesses to different bank groups
RTPL                                    0 # read to precharge delay between accesses to different bank groups
Total number of memory sub partition = 22
addr_dec_mask[CHIP]  = 0000000000000000 	high:64 low:0
addr_dec_mask[BK]    = 0000000000007080 	high:15 low:7
addr_dec_mask[ROW]   = 000000000fff8000 	high:28 low:15
addr_dec_mask[COL]   = 0000000000000f7f 	high:12 low:0
addr_dec_mask[BURST] = 000000000000001f 	high:5 low:0
sub_partition_id_mask = 0000000000000080
GPGPU-Sim uArch: clock freqs: 1481000000.000000:2962000000.000000:1481000000.000000:2750000000.000000
GPGPU-Sim uArch: clock periods: 0.00000000067521944632:0.00000000033760972316:0.00000000067521944632:0.00000000036363636364
*** Initializing Memory Statistics ***
GPGPU-Sim uArch: interconnect node map (shaderID+MemID to icntID)
GPGPU-Sim uArch: Memory nodes ID start from index: 28
GPGPU-Sim uArch:    0   1   2   3   4   5   6
GPGPU-Sim uArch:    7   8   9  10  11  12  13
GPGPU-Sim uArch:   14  15  16  17  18  19  20
GPGPU-Sim uArch:   21  22  23  24  25  26  27
GPGPU-Sim uArch:   28  29  30  31  32  33  34
GPGPU-Sim uArch:   35  36  37  38  39  40  41
GPGPU-Sim uArch:   42  43  44  45  46  47  48
GPGPU-Sim uArch:   49
GPGPU-Sim uArch: interconnect node reverse map (icntID to shaderID+MemID)
GPGPU-Sim uArch: Memory nodes start from ID: 28
GPGPU-Sim uArch:    0   1   2   3   4   5   6
GPGPU-Sim uArch:    7   8   9  10  11  12  13
GPGPU-Sim uArch:   14  15  16  17  18  19  20
GPGPU-Sim uArch:   21  22  23  24  25  26  27
GPGPU-Sim uArch:   28  29  30  31  32  33  34
GPGPU-Sim uArch:   35  36  37  38  39  40  41
GPGPU-Sim uArch:   42  43  44  45  46  47  48
GPGPU-Sim uArch:   49
503228a84c5acce04febe5a767a6866d  /root/gpgpu-sim_UVMSmart/benchmarks/Managed/hotspot/hotspot
GPGPU-Sim uArch: performance model initialization complete.
GPGPU-Sim PTX: __cudaRegisterFatBinary, fat_cubin_handle = 1, filename=default
self exe links to: /root/gpgpu-sim_UVMSmart/benchmarks/Managed/hotspot/hotspot
Running md5sum using "md5sum /root/gpgpu-sim_UVMSmart/benchmarks/Managed/hotspot/hotspot "
Parsing file _cuobjdump_complete_output_Tnhmkf
######### cuobjdump parser ########
## Adding new section ELF
Adding arch: sm_20
Adding identifier: default
## Adding new section ELF
Adding arch: sm_20
Adding identifier: default
## Adding new section PTX
Adding ptx filename: _cuobjdump_1.ptx
Adding arch: sm_20
Adding identifier: default
Done parsing!!!
GPGPU-Sim PTX: __cudaRegisterFunction _Z14calculate_tempiPfS_S_iiiiffffff : hostFun 0x0x401ae2, fat_cubin_handle = 1
GPGPU-Sim PTX: allocating shared region for "_Z14calculate_tempiPfS_S_iiiiffffff$__cuda_local_var_16165_39_non_const_temp_on_cuda" from 0x0 to 0x400 (shared memory space)
GPGPU-Sim PTX: allocating shared region for "_Z14calculate_tempiPfS_S_iiiiffffff$__cuda_local_var_16166_39_non_const_power_on_cuda" from 0x400 to 0x800 (shared memory space)
GPGPU-Sim PTX: allocating shared region for "_Z14calculate_tempiPfS_S_iiiiffffff$__cuda_local_var_16167_39_non_const_temp_t" from 0x800 to 0xc00 (shared memory space)
GPGPU-Sim PTX: instruction assembly for function '_Z14calculate_tempiPfS_S_iiiiffffff'...   done.
GPGPU-Sim PTX: finding reconvergence points for '_Z14calculate_tempiPfS_S_iiiiffffff'...
GPGPU-Sim PTX: Finding dominators for '_Z14calculate_tempiPfS_S_iiiiffffff'...
GPGPU-Sim PTX: Finding immediate dominators for '_Z14calculate_tempiPfS_S_iiiiffffff'...
GPGPU-Sim PTX: Finding postdominators for '_Z14calculate_tempiPfS_S_iiiiffffff'...
GPGPU-Sim PTX: Finding immediate postdominators for '_Z14calculate_tempiPfS_S_iiiiffffff'...
GPGPU-Sim PTX: pre-decoding instructions for '_Z14calculate_tempiPfS_S_iiiiffffff'...
GPGPU-Sim PTX: reconvergence points for _Z14calculate_tempiPfS_S_iiiiffffff...
GPGPU-Sim PTX:  1 (potential) branch divergence @  PC=0x118 (_1.ptx:82) @!%p7 bra BB0_2;
GPGPU-Sim PTX:    immediate post dominator      @  PC=0x1b8 (_1.ptx:106) bar.sync 0;
GPGPU-Sim PTX:  2 (potential) branch divergence @  PC=0x120 (_1.ptx:83) bra.uni BB0_1;
GPGPU-Sim PTX:    immediate post dominator      @  PC=0x128 (_1.ptx:86) mad.lo.s32 %r27, %r1, %r10, %r2;
GPGPU-Sim PTX:  3 (potential) branch divergence @  PC=0x1c8 (_1.ptx:108) @%p8 bra BB0_11;
GPGPU-Sim PTX:    immediate post dominator      @  PC=0x5b0 (_1.ptx:247) and.b16 %rs7, %rs8, 255;
GPGPU-Sim PTX:  4 (potential) branch divergence @  PC=0x338 (_1.ptx:157) @!%p15 bra BB0_7;
GPGPU-Sim PTX:    immediate post dominator      @  PC=0x538 (_1.ptx:226) bar.sync 0;
GPGPU-Sim PTX:  5 (potential) branch divergence @  PC=0x340 (_1.ptx:158) bra.uni BB0_5;
GPGPU-Sim PTX:    immediate post dominator      @  PC=0x348 (_1.ptx:161) setp.gt.s32%p16, %r23, %r6;
GPGPU-Sim PTX:  6 (potential) branch divergence @  PC=0x3d0 (_1.ptx:178) @%p28 bra BB0_7;
GPGPU-Sim PTX:    immediate post dominator      @  PC=0x538 (_1.ptx:226) bar.sync 0;
GPGPU-Sim PTX:  7 (potential) branch divergence @  PC=0x548 (_1.ptx:228) @%p31 bra BB0_11;
GPGPU-Sim PTX:    immediate post dominator      @  PC=0x5b0 (_1.ptx:247) and.b16 %rs7, %rs8, 255;
GPGPU-Sim PTX:  8 (potential) branch divergence @  PC=0x558 (_1.ptx:231) @%p32 bra BB0_10;
GPGPU-Sim PTX:    immediate post dominator      @  PC=0x590 (_1.ptx:241) bar.sync 0;
GPGPU-Sim PTX:  9 (potential) branch divergence @  PC=0x5a8 (_1.ptx:244) @%p33 bra BB0_4;
GPGPU-Sim PTX:    immediate post dominator      @  PC=0x5b0 (_1.ptx:247) and.b16 %rs7, %rs8, 255;
GPGPU-Sim PTX: 10 (potential) branch divergence @  PC=0x5c0 (_1.ptx:249) @%p34 bra BB0_13;
GPGPU-Sim PTX:    immediate post dominator      @  PC=0x620 (_1.ptx:264) ret;
GPGPU-Sim PTX: ... end of reconvergence points for _Z14calculate_tempiPfS_S_iiiiffffff
GPGPU-Sim PTX: ... done pre-decoding instructions for '_Z14calculate_tempiPfS_S_iiiiffffff'.
GPGPU-Sim PTX: finished parsing EMBEDDED .ptx file _1.ptx
Adding _cuobjdump_1.ptx with cubin handle 1
GPGPU-Sim PTX: extracting embedded .ptx to temporary file "_ptx_iS42pb"
Running: cat _ptx_iS42pb | sed 's/.version 1.5/.version 1.4/' | sed 's/, texmode_independent//' | sed 's/\(\.extern \.const\[1\] .b8 \w\+\)\[\]/\1\[1\]/' | sed 's/const\[.\]/const\[0\]/g' > _ptx2_zPMKv7
GPGPU-Sim PTX: generating ptxinfo using "$CUDA_INSTALL_PATH/bin/ptxas --gpu-name=sm_20 -v _ptx2_zPMKv7 --output-file  /dev/null 2> _ptx_iS42pbinfo"
GPGPU-Sim PTX: Kernel '_Z14calculate_tempiPfS_S_iiiiffffff' : regs=34, lmem=0, smem=3072, cmem=120
GPGPU-Sim PTX: removing ptxinfo using "rm -f _ptx_iS42pb _ptx2_zPMKv7 _ptx_iS42pbinfo"
GPGPU-Sim PTX: loading globals with explicit initializers... 
GPGPU-Sim PTX: finished loading globals (0 bytes total).
GPGPU-Sim PTX: loading constants with explicit initializers...  done.
WG size of kernel = 16 X 16
pyramidHeight: 2
gridSize: [1024, 1024]
border:[2, 2]
blockGrid:[86, 86]
targetBlock:[12, 12]
Start computing the transient temperature

GPGPU-Sim PTX: cudaLaunch for 0x0x401ae2 (mode=performance simulation) on stream 0
GPGPU-Sim PTX: pushing kernel '_Z14calculate_tempiPfS_S_iiiiffffff' to stream 0, gridDim= (86,86,1) blockDim = (16,16,1) 
GPGPU-Sim uArch: Shader 1 bind to kernel 1 '_Z14calculate_tempiPfS_S_iiiiffffff'
GPGPU-Sim uArch: CTA/core = 7, limited by: regs
GPGPU-Sim uArch: Shader 2 bind to kernel 1 '_Z14calculate_tempiPfS_S_iiiiffffff'
GPGPU-Sim uArch: Shader 3 bind to kernel 1 '_Z14calculate_tempiPfS_S_iiiiffffff'
GPGPU-Sim uArch: Shader 4 bind to kernel 1 '_Z14calculate_tempiPfS_S_iiiiffffff'
GPGPU-Sim uArch: Shader 5 bind to kernel 1 '_Z14calculate_tempiPfS_S_iiiiffffff'
GPGPU-Sim uArch: Shader 6 bind to kernel 1 '_Z14calculate_tempiPfS_S_iiiiffffff'
GPGPU-Sim uArch: Shader 7 bind to kernel 1 '_Z14calculate_tempiPfS_S_iiiiffffff'
GPGPU-Sim uArch: Shader 8 bind to kernel 1 '_Z14calculate_tempiPfS_S_iiiiffffff'
GPGPU-Sim uArch: Shader 9 bind to kernel 1 '_Z14calculate_tempiPfS_S_iiiiffffff'
GPGPU-Sim uArch: Shader 10 bind to kernel 1 '_Z14calculate_tempiPfS_S_iiiiffffff'
GPGPU-Sim uArch: Shader 11 bind to kernel 1 '_Z14calculate_tempiPfS_S_iiiiffffff'
GPGPU-Sim uArch: Shader 12 bind to kernel 1 '_Z14calculate_tempiPfS_S_iiiiffffff'
GPGPU-Sim uArch: Shader 13 bind to kernel 1 '_Z14calculate_tempiPfS_S_iiiiffffff'
GPGPU-Sim uArch: Shader 14 bind to kernel 1 '_Z14calculate_tempiPfS_S_iiiiffffff'
GPGPU-Sim uArch: Shader 15 bind to kernel 1 '_Z14calculate_tempiPfS_S_iiiiffffff'
GPGPU-Sim uArch: Shader 16 bind to kernel 1 '_Z14calculate_tempiPfS_S_iiiiffffff'
GPGPU-Sim uArch: Shader 17 bind to kernel 1 '_Z14calculate_tempiPfS_S_iiiiffffff'
GPGPU-Sim uArch: Shader 18 bind to kernel 1 '_Z14calculate_tempiPfS_S_iiiiffffff'
GPGPU-Sim uArch: Shader 19 bind to kernel 1 '_Z14calculate_tempiPfS_S_iiiiffffff'
GPGPU-Sim uArch: Shader 20 bind to kernel 1 '_Z14calculate_tempiPfS_S_iiiiffffff'
GPGPU-Sim uArch: Shader 21 bind to kernel 1 '_Z14calculate_tempiPfS_S_iiiiffffff'
GPGPU-Sim uArch: Shader 22 bind to kernel 1 '_Z14calculate_tempiPfS_S_iiiiffffff'
GPGPU-Sim uArch: Shader 23 bind to kernel 1 '_Z14calculate_tempiPfS_S_iiiiffffff'
GPGPU-Sim uArch: Shader 24 bind to kernel 1 '_Z14calculate_tempiPfS_S_iiiiffffff'
GPGPU-Sim uArch: Shader 25 bind to kernel 1 '_Z14calculate_tempiPfS_S_iiiiffffff'
GPGPU-Sim uArch: Shader 26 bind to kernel 1 '_Z14calculate_tempiPfS_S_iiiiffffff'
GPGPU-Sim uArch: Shader 27 bind to kernel 1 '_Z14calculate_tempiPfS_S_iiiiffffff'
GPGPU-Sim uArch: Shader 0 bind to kernel 1 '_Z14calculate_tempiPfS_S_iiiiffffff'
GPGPU-Sim uArch: Shader 1 bind to kernel 1 '_Z14calculate_tempiPfS_S_iiiiffffff'
GPGPU-Sim uArch: Shader 2 bind to kernel 1 '_Z14calculate_tempiPfS_S_iiiiffffff'
GPGPU-Sim uArch: Shader 3 bind to kernel 1 '_Z14calculate_tempiPfS_S_iiiiffffff'
GPGPU-Sim uArch: Shader 4 bind to kernel 1 '_Z14calculate_tempiPfS_S_iiiiffffff'
GPGPU-Sim uArch: Shader 21 bind to kernel 1 '_Z14calculate_tempiPfS_S_iiiiffffff'
GPGPU-Sim uArch: Shader 22 bind to kernel 1 '_Z14calculate_tempiPfS_S_iiiiffffff'
GPGPU-Sim uArch: Shader 23 bind to kernel 1 '_Z14calculate_tempiPfS_S_iiiiffffff'
GPGPU-Sim uArch: Shader 24 bind to kernel 1 '_Z14calculate_tempiPfS_S_iiiiffffff'
GPGPU-Sim uArch: Shader 25 bind to kernel 1 '_Z14calculate_tempiPfS_S_iiiiffffff'
GPGPU-Sim uArch: Shader 26 bind to kernel 1 '_Z14calculate_tempiPfS_S_iiiiffffff'
GPGPU-Sim uArch: Shader 27 bind to kernel 1 '_Z14calculate_tempiPfS_S_iiiiffffff'
GPGPU-Sim uArch: Shader 0 bind to kernel 1 '_Z14calculate_tempiPfS_S_iiiiffffff'
GPGPU-Sim uArch: Shader 14 bind to kernel 1 '_Z14calculate_tempiPfS_S_iiiiffffff'
GPGPU-Sim uArch: Shader 15 bind to kernel 1 '_Z14calculate_tempiPfS_S_iiiiffffff'
GPGPU-Sim uArch: Shader 18 bind to kernel 1 '_Z14calculate_tempiPfS_S_iiiiffffff'
GPGPU-Sim uArch: Shader 19 bind to kernel 1 '_Z14calculate_tempiPfS_S_iiiiffffff'
GPGPU-Sim uArch: Shader 22 bind to kernel 1 '_Z14calculate_tempiPfS_S_iiiiffffff'
GPGPU-Sim uArch: Shader 23 bind to kernel 1 '_Z14calculate_tempiPfS_S_iiiiffffff'
GPGPU-Sim uArch: Shader 2 bind to kernel 1 '_Z14calculate_tempiPfS_S_iiiiffffff'
GPGPU-Sim uArch: Shader 17 bind to kernel 1 '_Z14calculate_tempiPfS_S_iiiiffffff'
GPGPU-Sim uArch: Shader 21 bind to kernel 1 '_Z14calculate_tempiPfS_S_iiiiffffff'
GPGPU-Sim uArch: Shader 1 bind to kernel 1 '_Z14calculate_tempiPfS_S_iiiiffffff'
GPGPU-Sim uArch: Shader 3 bind to kernel 1 '_Z14calculate_tempiPfS_S_iiiiffffff'
GPGPU-Sim uArch: Shader 4 bind to kernel 1 '_Z14calculate_tempiPfS_S_iiiiffffff'
GPGPU-Sim uArch: Shader 9 bind to kernel 1 '_Z14calculate_tempiPfS_S_iiiiffffff'
GPGPU-Sim uArch: Shader 12 bind to kernel 1 '_Z14calculate_tempiPfS_S_iiiiffffff'
GPGPU-Sim uArch: Shader 23 bind to kernel 1 '_Z14calculate_tempiPfS_S_iiiiffffff'
GPGPU-Sim uArch: Shader 6 bind to kernel 1 '_Z14calculate_tempiPfS_S_iiiiffffff'
GPGPU-Sim uArch: Shader 8 bind to kernel 1 '_Z14calculate_tempiPfS_S_iiiiffffff'
GPGPU-Sim uArch: Shader 19 bind to kernel 1 '_Z14calculate_tempiPfS_S_iiiiffffff'
GPGPU-Sim uArch: Shader 22 bind to kernel 1 '_Z14calculate_tempiPfS_S_iiiiffffff'
GPGPU-Sim uArch: Shader 23 bind to kernel 1 '_Z14calculate_tempiPfS_S_iiiiffffff'
GPGPU-Sim uArch: Shader 24 bind to kernel 1 '_Z14calculate_tempiPfS_S_iiiiffffff'
GPGPU-Sim uArch: Shader 2 bind to kernel 1 '_Z14calculate_tempiPfS_S_iiiiffffff'
GPGPU-Sim uArch: Shader 4 bind to kernel 1 '_Z14calculate_tempiPfS_S_iiiiffffff'
GPGPU-Sim uArch: Shader 12 bind to kernel 1 '_Z14calculate_tempiPfS_S_iiiiffffff'
GPGPU-Sim uArch: Shader 4 bind to kernel 1 '_Z14calculate_tempiPfS_S_iiiiffffff'
GPGPU-Sim uArch: Shader 7 bind to kernel 1 '_Z14calculate_tempiPfS_S_iiiiffffff'
GPGPU-Sim uArch: Shader 9 bind to kernel 1 '_Z14calculate_tempiPfS_S_iiiiffffff'
GPGPU-Sim uArch: Shader 10 bind to kernel 1 '_Z14calculate_tempiPfS_S_iiiiffffff'
GPGPU-Sim uArch: Shader 11 bind to kernel 1 '_Z14calculate_tempiPfS_S_iiiiffffff'
GPGPU-Sim uArch: Shader 12 bind to kernel 1 '_Z14calculate_tempiPfS_S_iiiiffffff'
GPGPU-Sim uArch: Shader 13 bind to kernel 1 '_Z14calculate_tempiPfS_S_iiiiffffff'
GPGPU-Sim uArch: Shader 26 bind to kernel 1 '_Z14calculate_tempiPfS_S_iiiiffffff'
GPGPU-Sim uArch: Shader 0 bind to kernel 1 '_Z14calculate_tempiPfS_S_iiiiffffff'
GPGPU-Sim uArch: Shader 1 bind to kernel 1 '_Z14calculate_tempiPfS_S_iiiiffffff'
GPGPU-Sim uArch: Shader 3 bind to kernel 1 '_Z14calculate_tempiPfS_S_iiiiffffff'
GPGPU-Sim uArch: Shader 5 bind to kernel 1 '_Z14calculate_tempiPfS_S_iiiiffffff'
GPGPU-Sim uArch: Shader 8 bind to kernel 1 '_Z14calculate_tempiPfS_S_iiiiffffff'
GPGPU-Sim uArch: Shader 16 bind to kernel 1 '_Z14calculate_tempiPfS_S_iiiiffffff'
GPGPU-Sim uArch: Shader 17 bind to kernel 1 '_Z14calculate_tempiPfS_S_iiiiffffff'
GPGPU-Sim uArch: Shader 24 bind to kernel 1 '_Z14calculate_tempiPfS_S_iiiiffffff'
GPGPU-Sim uArch: Shader 26 bind to kernel 1 '_Z14calculate_tempiPfS_S_iiiiffffff'
GPGPU-Sim uArch: Shader 0 bind to kernel 1 '_Z14calculate_tempiPfS_S_iiiiffffff'
GPGPU-Sim uArch: Shader 2 bind to kernel 1 '_Z14calculate_tempiPfS_S_iiiiffffff'
GPGPU-Sim uArch: Shader 7 bind to kernel 1 '_Z14calculate_tempiPfS_S_iiiiffffff'
GPGPU-Sim uArch: Shader 10 bind to kernel 1 '_Z14calculate_tempiPfS_S_iiiiffffff'
GPGPU-Sim uArch: Shader 11 bind to kernel 1 '_Z14calculate_tempiPfS_S_iiiiffffff'
GPGPU-Sim uArch: Shader 14 bind to kernel 1 '_Z14calculate_tempiPfS_S_iiiiffffff'
GPGPU-Sim uArch: Shader 15 bind to kernel 1 '_Z14calculate_tempiPfS_S_iiiiffffff'
GPGPU-Sim uArch: Shader 19 bind to kernel 1 '_Z14calculate_tempiPfS_S_iiiiffffff'
GPGPU-Sim uArch: Shader 20 bind to kernel 1 '_Z14calculate_tempiPfS_S_iiiiffffff'
GPGPU-Sim uArch: Shader 23 bind to kernel 1 '_Z14calculate_tempiPfS_S_iiiiffffff'
GPGPU-Sim uArch: Shader 24 bind to kernel 1 '_Z14calculate_tempiPfS_S_iiiiffffff'
GPGPU-Sim uArch: Shader 25 bind to kernel 1 '_Z14calculate_tempiPfS_S_iiiiffffff'
GPGPU-Sim uArch: Shader 27 bind to kernel 1 '_Z14calculate_tempiPfS_S_iiiiffffff'
GPGPU-Sim uArch: Shader 1 bind to kernel 1 '_Z14calculate_tempiPfS_S_iiiiffffff'
GPGPU-Sim uArch: Shader 3 bind to kernel 1 '_Z14calculate_tempiPfS_S_iiiiffffff'
GPGPU-Sim uArch: Shader 16 bind to kernel 1 '_Z14calculate_tempiPfS_S_iiiiffffff'
GPGPU-Sim uArch: Shader 18 bind to kernel 1 '_Z14calculate_tempiPfS_S_iiiiffffff'
GPGPU-Sim uArch: Shader 19 bind to kernel 1 '_Z14calculate_tempiPfS_S_iiiiffffff'
GPGPU-Sim uArch: Shader 22 bind to kernel 1 '_Z14calculate_tempiPfS_S_iiiiffffff'
GPGPU-Sim uArch: Shader 26 bind to kernel 1 '_Z14calculate_tempiPfS_S_iiiiffffff'
GPGPU-Sim uArch: Shader 2 bind to kernel 1 '_Z14calculate_tempiPfS_S_iiiiffffff'
GPGPU-Sim uArch: Shader 9 bind to kernel 1 '_Z14calculate_tempiPfS_S_iiiiffffff'
GPGPU-Sim uArch: Shader 10 bind to kernel 1 '_Z14calculate_tempiPfS_S_iiiiffffff'
GPGPU-Sim uArch: Shader 14 bind to kernel 1 '_Z14calculate_tempiPfS_S_iiiiffffff'
GPGPU-Sim uArch: Shader 23 bind to kernel 1 '_Z14calculate_tempiPfS_S_iiiiffffff'
GPGPU-Sim uArch: Shader 25 bind to kernel 1 '_Z14calculate_tempiPfS_S_iiiiffffff'
GPGPU-Sim uArch: Shader 27 bind to kernel 1 '_Z14calculate_tempiPfS_S_iiiiffffff'
GPGPU-Sim uArch: Shader 1 bind to kernel 1 '_Z14calculate_tempiPfS_S_iiiiffffff'
GPGPU-Sim uArch: Shader 3 bind to kernel 1 '_Z14calculate_tempiPfS_S_iiiiffffff'
GPGPU-Sim uArch: Shader 5 bind to kernel 1 '_Z14calculate_tempiPfS_S_iiiiffffff'
GPGPU-Sim uArch: Shader 7 bind to kernel 1 '_Z14calculate_tempiPfS_S_iiiiffffff'
GPGPU-Sim uArch: Shader 12 bind to kernel 1 '_Z14calculate_tempiPfS_S_iiiiffffff'
GPGPU-Sim uArch: Shader 17 bind to kernel 1 '_Z14calculate_tempiPfS_S_iiiiffffff'
GPGPU-Sim uArch: Shader 20 bind to kernel 1 '_Z14calculate_tempiPfS_S_iiiiffffff'
GPGPU-Sim uArch: Shader 21 bind to kernel 1 '_Z14calculate_tempiPfS_S_iiiiffffff'
GPGPU-Sim uArch: Shader 26 bind to kernel 1 '_Z14calculate_tempiPfS_S_iiiiffffff'
GPGPU-Sim uArch: Shader 0 bind to kernel 1 '_Z14calculate_tempiPfS_S_iiiiffffff'
GPGPU-Sim uArch: Shader 4 bind to kernel 1 '_Z14calculate_tempiPfS_S_iiiiffffff'
GPGPU-Sim uArch: Shader 6 bind to kernel 1 '_Z14calculate_tempiPfS_S_iiiiffffff'
GPGPU-Sim uArch: Shader 8 bind to kernel 1 '_Z14calculate_tempiPfS_S_iiiiffffff'
GPGPU-Sim uArch: Shader 9 bind to kernel 1 '_Z14calculate_tempiPfS_S_iiiiffffff'
GPGPU-Sim uArch: Shader 13 bind to kernel 1 '_Z14calculate_tempiPfS_S_iiiiffffff'
GPGPU-Sim uArch: Shader 18 bind to kernel 1 '_Z14calculate_tempiPfS_S_iiiiffffff'
GPGPU-Sim uArch: Shader 21 bind to kernel 1 '_Z14calculate_tempiPfS_S_iiiiffffff'
GPGPU-Sim uArch: Shader 1 bind to kernel 1 '_Z14calculate_tempiPfS_S_iiiiffffff'
GPGPU-Sim uArch: Shader 3 bind to kernel 1 '_Z14calculate_tempiPfS_S_iiiiffffff'
GPGPU-Sim uArch: Shader 7 bind to kernel 1 '_Z14calculate_tempiPfS_S_iiiiffffff'
GPGPU-Sim uArch: Shader 11 bind to kernel 1 '_Z14calculate_tempiPfS_S_iiiiffffff'
GPGPU-Sim uArch: Shader 8 bind to kernel 1 '_Z14calculate_tempiPfS_S_iiiiffffff'
GPGPU-Sim uArch: Shader 16 bind to kernel 1 '_Z14calculate_tempiPfS_S_iiiiffffff'
GPGPU-Sim uArch: Shader 17 bind to kernel 1 '_Z14calculate_tempiPfS_S_iiiiffffff'
GPGPU-Sim uArch: Shader 19 bind to kernel 1 '_Z14calculate_tempiPfS_S_iiiiffffff'
GPGPU-Sim uArch: Shader 20 bind to kernel 1 '_Z14calculate_tempiPfS_S_iiiiffffff'
GPGPU-Sim uArch: Shader 23 bind to kernel 1 '_Z14calculate_tempiPfS_S_iiiiffffff'
GPGPU-Sim uArch: Shader 24 bind to kernel 1 '_Z14calculate_tempiPfS_S_iiiiffffff'
GPGPU-Sim uArch: Shader 4 bind to kernel 1 '_Z14calculate_tempiPfS_S_iiiiffffff'
GPGPU-Sim uArch: Shader 9 bind to kernel 1 '_Z14calculate_tempiPfS_S_iiiiffffff'
GPGPU-Sim uArch: Shader 11 bind to kernel 1 '_Z14calculate_tempiPfS_S_iiiiffffff'
GPGPU-Sim uArch: Shader 13 bind to kernel 1 '_Z14calculate_tempiPfS_S_iiiiffffff'
GPGPU-Sim uArch: Shader 14 bind to kernel 1 '_Z14calculate_tempiPfS_S_iiiiffffff'
GPGPU-Sim uArch: Shader 18 bind to kernel 1 '_Z14calculate_tempiPfS_S_iiiiffffff'
GPGPU-Sim uArch: Shader 21 bind to kernel 1 '_Z14calculate_tempiPfS_S_iiiiffffff'
GPGPU-Sim uArch: Shader 22 bind to kernel 1 '_Z14calculate_tempiPfS_S_iiiiffffff'
GPGPU-Sim uArch: Shader 25 bind to kernel 1 '_Z14calculate_tempiPfS_S_iiiiffffff'
GPGPU-Sim uArch: Shader 1 bind to kernel 1 '_Z14calculate_tempiPfS_S_iiiiffffff'
GPGPU-Sim uArch: Shader 2 bind to kernel 1 '_Z14calculate_tempiPfS_S_iiiiffffff'
GPGPU-Sim uArch: Shader 27 bind to kernel 1 '_Z14calculate_tempiPfS_S_iiiiffffff'
GPGPU-Sim uArch: Shader 4 bind to kernel 1 '_Z14calculate_tempiPfS_S_iiiiffffff'
GPGPU-Sim uArch: Shader 6 bind to kernel 1 '_Z14calculate_tempiPfS_S_iiiiffffff'
GPGPU-Sim uArch: Shader 7 bind to kernel 1 '_Z14calculate_tempiPfS_S_iiiiffffff'
GPGPU-Sim uArch: Shader 8 bind to kernel 1 '_Z14calculate_tempiPfS_S_iiiiffffff'
GPGPU-Sim uArch: Shader 19 bind to kernel 1 '_Z14calculate_tempiPfS_S_iiiiffffff'
GPGPU-Sim uArch: Shader 23 bind to kernel 1 '_Z14calculate_tempiPfS_S_iiiiffffff'
GPGPU-Sim uArch: Shader 24 bind to kernel 1 '_Z14calculate_tempiPfS_S_iiiiffffff'
GPGPU-Sim uArch: Shader 11 bind to kernel 1 '_Z14calculate_tempiPfS_S_iiiiffffff'
GPGPU-Sim uArch: Shader 14 bind to kernel 1 '_Z14calculate_tempiPfS_S_iiiiffffff'
GPGPU-Sim uArch: Shader 22 bind to kernel 1 '_Z14calculate_tempiPfS_S_iiiiffffff'
GPGPU-Sim uArch: Shader 25 bind to kernel 1 '_Z14calculate_tempiPfS_S_iiiiffffff'
GPGPU-Sim uArch: Shader 26 bind to kernel 1 '_Z14calculate_tempiPfS_S_iiiiffffff'
GPGPU-Sim uArch: Shader 0 bind to kernel 1 '_Z14calculate_tempiPfS_S_iiiiffffff'
GPGPU-Sim uArch: Shader 1 bind to kernel 1 '_Z14calculate_tempiPfS_S_iiiiffffff'
GPGPU-Sim uArch: Shader 2 bind to kernel 1 '_Z14calculate_tempiPfS_S_iiiiffffff'
GPGPU-Sim uArch: Shader 13 bind to kernel 1 '_Z14calculate_tempiPfS_S_iiiiffffff'
GPGPU-Sim uArch: Shader 16 bind to kernel 1 '_Z14calculate_tempiPfS_S_iiiiffffff'
GPGPU-Sim uArch: Shader 19 bind to kernel 1 '_Z14calculate_tempiPfS_S_iiiiffffff'
GPGPU-Sim uArch: Shader 21 bind to kernel 1 '_Z14calculate_tempiPfS_S_iiiiffffff'
GPGPU-Sim uArch: Shader 23 bind to kernel 1 '_Z14calculate_tempiPfS_S_iiiiffffff'
GPGPU-Sim uArch: Shader 27 bind to kernel 1 '_Z14calculate_tempiPfS_S_iiiiffffff'
GPGPU-Sim uArch: Shader 0 bind to kernel 1 '_Z14calculate_tempiPfS_S_iiiiffffff'
GPGPU-Sim uArch: Shader 22 bind to kernel 1 '_Z14calculate_tempiPfS_S_iiiiffffff'
GPGPU-Sim uArch: Shader 25 bind to kernel 1 '_Z14calculate_tempiPfS_S_iiiiffffff'
GPGPU-Sim uArch: Shader 0 bind to kernel 1 '_Z14calculate_tempiPfS_S_iiiiffffff'
GPGPU-Sim uArch: Shader 1 bind to kernel 1 '_Z14calculate_tempiPfS_S_iiiiffffff'
GPGPU-Sim uArch: Shader 4 bind to kernel 1 '_Z14calculate_tempiPfS_S_iiiiffffff'
GPGPU-Sim uArch: Shader 14 bind to kernel 1 '_Z14calculate_tempiPfS_S_iiiiffffff'
GPGPU-Sim uArch: Shader 20 bind to kernel 1 '_Z14calculate_tempiPfS_S_iiiiffffff'
GPGPU-Sim uArch: Shader 2 bind to kernel 1 '_Z14calculate_tempiPfS_S_iiiiffffff'
GPGPU-Sim uArch: Shader 7 bind to kernel 1 '_Z14calculate_tempiPfS_S_iiiiffffff'
GPGPU-Sim uArch: Shader 10 bind to kernel 1 '_Z14calculate_tempiPfS_S_iiiiffffff'
GPGPU-Sim uArch: Shader 16 bind to kernel 1 '_Z14calculate_tempiPfS_S_iiiiffffff'
GPGPU-Sim uArch: Shader 19 bind to kernel 1 '_Z14calculate_tempiPfS_S_iiiiffffff'
GPGPU-Sim uArch: Shader 23 bind to kernel 1 '_Z14calculate_tempiPfS_S_iiiiffffff'
GPGPU-Sim uArch: Shader 24 bind to kernel 1 '_Z14calculate_tempiPfS_S_iiiiffffff'
GPGPU-Sim uArch: Shader 27 bind to kernel 1 '_Z14calculate_tempiPfS_S_iiiiffffff'
Destroy streams for kernel 1: size 0
kernel_name = _Z14calculate_tempiPfS_S_iiiiffffff 
kernel_launch_uid = 1 
gpu_sim_cycle = 2097017
gpu_sim_insn = 415466464
gpu_ipc =     198.1226
gpu_tot_sim_cycle = 2319167
gpu_tot_sim_insn = 415466464
gpu_tot_ipc =     179.1447
gpu_tot_issued_cta = 7396
max_total_param_size = 0
gpu_stall_dramfull = 32175
gpu_stall_icnt2sh    = 756221
partiton_reqs_in_parallel = 46102199
partiton_reqs_in_parallel_total    = 0
partiton_level_parallism =      21.9847
partiton_level_parallism_total  =      19.8788
partiton_reqs_in_parallel_util = 46102199
partiton_reqs_in_parallel_util_total    = 0
gpu_sim_cycle_parition_util = 2097017
gpu_tot_sim_cycle_parition_util    = 0
partiton_level_parallism_util =      21.9847
partiton_level_parallism_util_total  =      21.9847
partiton_replys_in_parallel = 456444
partiton_replys_in_parallel_total    = 0
L2_BW  =      20.6310 GB/Sec
L2_BW_total  =      18.6548 GB/Sec
gpu_total_sim_rate=152969

========= Core cache stats =========
L1I_cache:
	L1I_total_cache_accesses = 7740000
	L1I_total_cache_misses = 8693
	L1I_total_cache_miss_rate = 0.0011
	L1I_total_cache_pending_hits = 0
	L1I_total_cache_reservation_fails = 6846
L1D_cache:
	L1D_cache_core[0]: Access = 0, Miss = 0, Miss_rate = -nan, Pending_hits = 0, Reservation_fails = 0
	L1D_cache_core[1]: Access = 0, Miss = 0, Miss_rate = -nan, Pending_hits = 0, Reservation_fails = 0
	L1D_cache_core[2]: Access = 0, Miss = 0, Miss_rate = -nan, Pending_hits = 0, Reservation_fails = 0
	L1D_cache_core[3]: Access = 0, Miss = 0, Miss_rate = -nan, Pending_hits = 0, Reservation_fails = 0
	L1D_cache_core[4]: Access = 0, Miss = 0, Miss_rate = -nan, Pending_hits = 0, Reservation_fails = 0
	L1D_cache_core[5]: Access = 0, Miss = 0, Miss_rate = -nan, Pending_hits = 0, Reservation_fails = 0
	L1D_cache_core[6]: Access = 0, Miss = 0, Miss_rate = -nan, Pending_hits = 0, Reservation_fails = 0
	L1D_cache_core[7]: Access = 0, Miss = 0, Miss_rate = -nan, Pending_hits = 0, Reservation_fails = 0
	L1D_cache_core[8]: Access = 0, Miss = 0, Miss_rate = -nan, Pending_hits = 0, Reservation_fails = 0
	L1D_cache_core[9]: Access = 0, Miss = 0, Miss_rate = -nan, Pending_hits = 0, Reservation_fails = 0
	L1D_cache_core[10]: Access = 0, Miss = 0, Miss_rate = -nan, Pending_hits = 0, Reservation_fails = 0
	L1D_cache_core[11]: Access = 0, Miss = 0, Miss_rate = -nan, Pending_hits = 0, Reservation_fails = 0
	L1D_cache_core[12]: Access = 0, Miss = 0, Miss_rate = -nan, Pending_hits = 0, Reservation_fails = 0
	L1D_cache_core[13]: Access = 0, Miss = 0, Miss_rate = -nan, Pending_hits = 0, Reservation_fails = 0
	L1D_cache_core[14]: Access = 0, Miss = 0, Miss_rate = -nan, Pending_hits = 0, Reservation_fails = 0
	L1D_cache_core[15]: Access = 0, Miss = 0, Miss_rate = -nan, Pending_hits = 0, Reservation_fails = 0
	L1D_cache_core[16]: Access = 0, Miss = 0, Miss_rate = -nan, Pending_hits = 0, Reservation_fails = 0
	L1D_cache_core[17]: Access = 0, Miss = 0, Miss_rate = -nan, Pending_hits = 0, Reservation_fails = 0
	L1D_cache_core[18]: Access = 0, Miss = 0, Miss_rate = -nan, Pending_hits = 0, Reservation_fails = 0
	L1D_cache_core[19]: Access = 0, Miss = 0, Miss_rate = -nan, Pending_hits = 0, Reservation_fails = 0
	L1D_cache_core[20]: Access = 0, Miss = 0, Miss_rate = -nan, Pending_hits = 0, Reservation_fails = 0
	L1D_cache_core[21]: Access = 0, Miss = 0, Miss_rate = -nan, Pending_hits = 0, Reservation_fails = 0
	L1D_cache_core[22]: Access = 0, Miss = 0, Miss_rate = -nan, Pending_hits = 0, Reservation_fails = 0
	L1D_cache_core[23]: Access = 0, Miss = 0, Miss_rate = -nan, Pending_hits = 0, Reservation_fails = 0
	L1D_cache_core[24]: Access = 0, Miss = 0, Miss_rate = -nan, Pending_hits = 0, Reservation_fails = 0
	L1D_cache_core[25]: Access = 0, Miss = 0, Miss_rate = -nan, Pending_hits = 0, Reservation_fails = 0
	L1D_cache_core[26]: Access = 0, Miss = 0, Miss_rate = -nan, Pending_hits = 0, Reservation_fails = 0
	L1D_cache_core[27]: Access = 0, Miss = 0, Miss_rate = -nan, Pending_hits = 0, Reservation_fails = 0
	L1D_total_cache_accesses = 0
	L1D_total_cache_misses = 0
	L1D_total_cache_pending_hits = 0
	L1D_total_cache_reservation_fails = 0
	L1D_cache_data_port_util = 0.000
	L1D_cache_fill_port_util = 0.000
L1C_cache:
	L1C_total_cache_accesses = 769184
	L1C_total_cache_misses = 2195
	L1C_total_cache_miss_rate = 0.0029
	L1C_total_cache_pending_hits = 0
	L1C_total_cache_reservation_fails = 4886
L1T_cache:
	L1T_total_cache_accesses = 0
	L1T_total_cache_misses = 0
	L1T_total_cache_pending_hits = 0
	L1T_total_cache_reservation_fails = 0

Total_core_cache_stats:
	Total_core_cache_stats_breakdown[GLOBAL_ACC_R][HIT] = 0
	Total_core_cache_stats_breakdown[GLOBAL_ACC_R][HIT_RESERVED] = 0
	Total_core_cache_stats_breakdown[GLOBAL_ACC_R][MISS] = 0
	Total_core_cache_stats_breakdown[GLOBAL_ACC_R][RESERVATION_FAIL] = 0
	Total_core_cache_stats_breakdown[LOCAL_ACC_R][HIT] = 0
	Total_core_cache_stats_breakdown[LOCAL_ACC_R][HIT_RESERVED] = 0
	Total_core_cache_stats_breakdown[LOCAL_ACC_R][MISS] = 0
	Total_core_cache_stats_breakdown[LOCAL_ACC_R][RESERVATION_FAIL] = 0
	Total_core_cache_stats_breakdown[CONST_ACC_R][HIT] = 766989
	Total_core_cache_stats_breakdown[CONST_ACC_R][HIT_RESERVED] = 0
	Total_core_cache_stats_breakdown[CONST_ACC_R][MISS] = 2195
	Total_core_cache_stats_breakdown[CONST_ACC_R][RESERVATION_FAIL] = 4886
	Total_core_cache_stats_breakdown[TEXTURE_ACC_R][HIT] = 0
	Total_core_cache_stats_breakdown[TEXTURE_ACC_R][HIT_RESERVED] = 0
	Total_core_cache_stats_breakdown[TEXTURE_ACC_R][MISS] = 0
	Total_core_cache_stats_breakdown[TEXTURE_ACC_R][RESERVATION_FAIL] = 0
	Total_core_cache_stats_breakdown[GLOBAL_ACC_W][HIT] = 0
	Total_core_cache_stats_breakdown[GLOBAL_ACC_W][HIT_RESERVED] = 0
	Total_core_cache_stats_breakdown[GLOBAL_ACC_W][MISS] = 0
	Total_core_cache_stats_breakdown[GLOBAL_ACC_W][RESERVATION_FAIL] = 0
	Total_core_cache_stats_breakdown[LOCAL_ACC_W][HIT] = 0
	Total_core_cache_stats_breakdown[LOCAL_ACC_W][HIT_RESERVED] = 0
	Total_core_cache_stats_breakdown[LOCAL_ACC_W][MISS] = 0
	Total_core_cache_stats_breakdown[LOCAL_ACC_W][RESERVATION_FAIL] = 0
	Total_core_cache_stats_breakdown[L1_WRBK_ACC][HIT] = 0
	Total_core_cache_stats_breakdown[L1_WRBK_ACC][HIT_RESERVED] = 0
	Total_core_cache_stats_breakdown[L1_WRBK_ACC][MISS] = 0
	Total_core_cache_stats_breakdown[L1_WRBK_ACC][RESERVATION_FAIL] = 0
	Total_core_cache_stats_breakdown[L2_WRBK_ACC][HIT] = 0
	Total_core_cache_stats_breakdown[L2_WRBK_ACC][HIT_RESERVED] = 0
	Total_core_cache_stats_breakdown[L2_WRBK_ACC][MISS] = 0
	Total_core_cache_stats_breakdown[L2_WRBK_ACC][RESERVATION_FAIL] = 0
	Total_core_cache_stats_breakdown[INST_ACC_R][HIT] = 7731307
	Total_core_cache_stats_breakdown[INST_ACC_R][HIT_RESERVED] = 0
	Total_core_cache_stats_breakdown[INST_ACC_R][MISS] = 8693
	Total_core_cache_stats_breakdown[INST_ACC_R][RESERVATION_FAIL] = 6846
	Total_core_cache_stats_breakdown[L1_WR_ALLOC_R][HIT] = 0
	Total_core_cache_stats_breakdown[L1_WR_ALLOC_R][HIT_RESERVED] = 0
	Total_core_cache_stats_breakdown[L1_WR_ALLOC_R][MISS] = 0
	Total_core_cache_stats_breakdown[L1_WR_ALLOC_R][RESERVATION_FAIL] = 0
	Total_core_cache_stats_breakdown[L2_WR_ALLOC_R][HIT] = 0
	Total_core_cache_stats_breakdown[L2_WR_ALLOC_R][HIT_RESERVED] = 0
	Total_core_cache_stats_breakdown[L2_WR_ALLOC_R][MISS] = 0
	Total_core_cache_stats_breakdown[L2_WR_ALLOC_R][RESERVATION_FAIL] = 0
	Total_core_cache_stats_breakdown[CONST_ACC_R][TOTAL_ACCESS] = 769184
	Total_core_cache_stats_breakdown[INST_ACC_R][TOTAL_ACCESS] = 7740000
Shader 0 warp_id issue ditsribution:
warp_id:
0, 1, 2, 3, 4, 5, 6, 7, 8, 9, 10, 11, 12, 13, 14, 15, 16, 17, 18, 19, 20, 21, 22, 23, 24, 25, 26, 27, 28, 29, 30, 31, 32, 33, 34, 35, 36, 37, 38, 39, 40, 41, 42, 43, 44, 45, 46, 47, 48, 49, 50, 51, 52, 53, 54, 55, 
distro:
10473, 13217, 13218, 13202, 13228, 13199, 13224, 10579, 9970, 12596, 12583, 12577, 12583, 12583, 12591, 10093, 9485, 11951, 11970, 11932, 11966, 11939, 11972, 9573, 9562, 11938, 11963, 11785, 11816, 11796, 11814, 9484, 8799, 10999, 11016, 10856, 10873, 10844, 10879, 8738, 8544, 10672, 10700, 10519, 10554, 10525, 10555, 8481, 8527, 10670, 10686, 10521, 10539, 10530, 10549, 8491, 
gpgpu_n_tot_thrd_icount = 485326208
gpgpu_n_tot_w_icount = 15166444
gpgpu_n_stall_shd_mem = 421275
gpgpu_n_mem_read_local = 0
gpgpu_n_mem_write_local = 0
gpgpu_n_mem_read_global = 346456
gpgpu_n_mem_write_global = 109568
gpgpu_n_mem_texture = 0
gpgpu_n_mem_const = 56
gpgpu_n_load_insn  = 3720992
gpgpu_n_store_insn = 1048576
gpgpu_n_shmem_insn = 24940324
gpgpu_n_tex_insn = 0
gpgpu_n_const_mem_insn = 0
gpgpu_n_param_mem_insn = 24613888
gpgpu_n_shmem_bkconflict = 0
gpgpu_n_cache_bkconflict = 0
gpgpu_n_intrawarp_mshr_merge = 0
gpgpu_n_cmem_portconflict = 4886
gpgpu_stall_shd_mem[c_mem][bk_conf] = 4886
gpgpu_stall_shd_mem[c_mem][mshr_rc] = 0
gpgpu_stall_shd_mem[c_mem][icnt_rc] = 0
gpgpu_stall_shd_mem[c_mem][data_port_stall] = 0
gpgpu_stall_shd_mem[t_mem][mshr_rc] = 0
gpgpu_stall_shd_mem[t_mem][icnt_rc] = 0
gpgpu_stall_shd_mem[t_mem][data_port_stall] = 0
gpgpu_stall_shd_mem[s_mem][bk_conf] = 0
gpgpu_stall_shd_mem[gl_mem][bk_conf] = 0
gpgpu_stall_shd_mem[gl_mem][coal_stall] = 303841
gpgpu_stall_shd_mem[gl_mem][data_port_stall] = 0
gpgpu_stall_shd_mem[g_mem_ld][mshr_rc] = 0
gpgpu_stall_shd_mem[g_mem_ld][icnt_rc] = 112548
gpgpu_stall_shd_mem[g_mem_ld][wb_icnt_rc] = 0
gpgpu_stall_shd_mem[g_mem_ld][wb_rsrv_fail] = 0
gpgpu_stall_shd_mem[g_mem_st][mshr_rc] = 0
gpgpu_stall_shd_mem[g_mem_st][icnt_rc] = 0
gpgpu_stall_shd_mem[g_mem_st][wb_icnt_rc] = 0
gpgpu_stall_shd_mem[g_mem_st][wb_rsrv_fail] = 0
gpgpu_stall_shd_mem[l_mem_ld][mshr_rc] = 0
gpgpu_stall_shd_mem[l_mem_ld][icnt_rc] = 0
gpgpu_stall_shd_mem[l_mem_ld][wb_icnt_rc] = 0
gpgpu_stall_shd_mem[l_mem_ld][wb_rsrv_fail] = 0
gpgpu_stall_shd_mem[l_mem_st][mshr_rc] = 0
gpgpu_stall_shd_mem[l_mem_st][icnt_rc] = 0
gpgpu_stall_shd_mem[l_mem_ld][wb_icnt_rc] = 0
gpgpu_stall_shd_mem[l_mem_ld][wb_rsrv_fail] = 0
gpu_reg_bank_conflict_stalls = 0
Warp Occupancy Distribution:
Stall:564461	W0_Idle:30029048	W0_Scoreboard:74114660	W1:0	W2:0	W3:0	W4:0	W5:8500	W6:0	W7:0	W8:28160	W9:0	W10:25600	W11:0	W12:12958	W13:8500	W14:714000	W15:0	W16:0	W17:0	W18:0	W19:0	W20:0	W21:0	W22:0	W23:0	W24:3517792	W25:0	W26:25600	W27:0	W28:3287550	W29:0	W30:0	W31:0	W32:7537784
traffic_breakdown_coretomem[CONST_ACC_R] = 448 {8:56,}
traffic_breakdown_coretomem[GLOBAL_ACC_R] = 2771648 {8:346456,}
traffic_breakdown_coretomem[GLOBAL_ACC_W] = 7856128 {40:44032,72:44032,136:21504,}
traffic_breakdown_coretomem[INST_ACC_R] = 2912 {8:364,}
traffic_breakdown_memtocore[CONST_ACC_R] = 4032 {72:56,}
traffic_breakdown_memtocore[GLOBAL_ACC_R] = 28785856 {40:114576,72:114576,136:117304,}
traffic_breakdown_memtocore[GLOBAL_ACC_W] = 876544 {8:109568,}
traffic_breakdown_memtocore[INST_ACC_R] = 49504 {136:364,}
maxmrqlatency = 531 
maxdqlatency = 0 
maxmflatency = 39858 
averagemflatency = 6565 
max_icnt2mem_latency = 39587 
max_icnt2sh_latency = 2319166 
mrq_lat_table:84124 	6437 	5088 	10405 	15853 	16317 	18668 	29813 	7847 	4 	0 	0 	0 	0 	0 	0 	0 	0 	0 	0 	0 	0 	0 	0 	0 	0 	0 	0 	0 	0 	0 	0 	
dq_lat_table:0 	0 	0 	0 	0 	0 	0 	0 	0 	0 	0 	0 	0 	0 	0 	0 	0 	0 	0 	0 	0 	0 	0 	0 	0 	0 	0 	0 	0 	0 	0 	0 	
mf_lat_table:0 	0 	0 	0 	0 	0 	0 	224385 	68470 	120 	42 	13064 	3307 	63020 	79700 	3972 	0 	0 	0 	0 	0 	0 	0 	0 	0 	0 	0 	0 	0 	0 	0 	0 	
icnt2mem_lat_table:0 	0 	195275 	20031 	1449 	1277 	72929 	2286 	57 	54 	119 	12968 	3966 	63771 	78290 	3972 	0 	0 	0 	0 	0 	0 	0 	0 	
icnt2sh_lat_table:0 	0 	97331 	159463 	82701 	6914 	103 	0 	0 	0 	0 	0 	0 	0 	0 	0 	0 	0 	13696 	27499 	54677 	13696 	0 	0 	
mf_lat_pw_table:0 	0 	0 	0 	0 	0 	0 	371 	85 	7 	18 	52 	27 	164 	197 	22 	0 	0 	0 	0 	0 	0 	0 	0 	0 	0 	0 	0 	0 	0 	0 	0 	
maximum concurrent accesses to same row:
dram[0]:        69        70        67        66        65        65        69        70        69        70        68        65        67        69        69        70 
dram[1]:        69        70        65        65        66        65        69        70        69        70        68        65        68        67        69        68 
dram[2]:        69        70        65        65        65        66        69        70        69        70        68        70        68        68        67        67 
dram[3]:        69        70        67        66        64        66        69        70        69        70        68        65        67        70        66        66 
dram[4]:        69        70        69        67        67        64        69        70        69        70        69        65        67        67        67        69 
dram[5]:        69        70        69        66        65        66        69        70        69        70        69        69        68        68        69        70 
dram[6]:        69        70        65        65        66        67        69        70        69        70        68        67        65        67        69        70 
dram[7]:        69        70        65        64        67        66        69        70        69        70        68        69        66        66        69        68 
dram[8]:        69        70        65        65        63        68        69        70        69        70        68        69        67        66        67        68 
dram[9]:        69        70        69        65        67        66        69        70        69        70        68        68        67        66        67        68 
dram[10]:        69        70        69        65        64        66        69        70        69        70        68        68        66        68        69        70 
maximum service time to same row:
dram[0]:    133200    132999    102987    102987    119572    119569    132796    132804    103710    103738    103441    103429    126035    126032    132247    131449 
dram[1]:    133021    132995    102992    102993    119588    119587    132779    132798    103700    103730    103450    103426    126033    126036    132202    132210 
dram[2]:    133011    133000    103000    102989    119555    119586    132780    132811    103702    103718    103432    103454    126032    126043    132198    131722 
dram[3]:    133011    132987    103011    102979    119579    119573    132771    132791    103727    103727    103428    103446    126041    133082    131714    131699 
dram[4]:    132997    133247    103000    102976    119574    119583    132805    133527    103725    103725    103450    103398    126038    126038    131727    131653 
dram[5]:    133199    133000    102994    102993    119583    119573    133511    133182    103719    103741    103460    103440    126039    126031    132213    131458 
dram[6]:    133021    132991    102994    103003    119592    119588    132787    132799    103706    103733    103458    103441    126032    126033    132249    132194 
dram[7]:    133009    132998    103002    102989    119555    119591    132769    132792    103702    103730    103434    103460    126039    126032    132177    131899 
dram[8]:    133012    132985    103001    102980    119582    119581    132779    132806    103727    103735    103437    103452    126038    126048    132237    131709 
dram[9]:    132999    133249    102999    102975    119583    119587    132810    133531    103726    103724    103452    103400    126031    126033    131709    131649 
dram[10]:    133229    133419    102996    102999    119581    119582    133499    133533    103722    103729    103520    103435    126033    126034    132213    131459 
average row accesses per activate:
dram[0]: 15.746268 14.958333 17.508196 15.835821 13.000000 12.670588 18.360655 17.953125 16.861538 17.169231 13.154762 13.912500 17.134329 16.152779 17.546875 17.531250 
dram[1]: 16.625000 16.523077 17.278688 15.647058 13.370370 13.382716 19.152542 20.052631 17.967213 16.611940 15.121622 15.985714 17.843750 15.986111 16.969696 16.835821 
dram[2]: 18.631578 17.095238 17.616667 16.515625 14.025974 14.689189 21.509434 20.000000 17.046154 17.123077 17.184616 15.040000 16.897058 17.424242 17.107693 17.045454 
dram[3]: 17.716667 17.063492 19.629629 18.000000 14.210526 13.846154 20.851852 20.854546 18.000000 19.561403 14.866667 15.219178 17.242424 17.815384 17.200001 17.060606 
dram[4]: 17.258064 16.553846 19.272728 16.888889 14.930555 13.320988 19.684210 20.210526 17.349207 17.619047 16.173914 13.925000 16.385714 16.000000 16.626865 17.538462 
dram[5]: 16.184616 15.457143 17.799999 15.558824 13.246914 13.024096 20.142857 20.140350 16.892307 17.061539 13.641975 14.397436 16.267605 16.083334 15.081081 15.053333 
dram[6]: 16.515625 17.573771 17.932203 15.850746 13.060241 13.746836 19.084745 18.190475 17.380953 17.107693 15.914286 16.159420 16.735294 16.041666 16.776119 16.850746 
dram[7]: 19.035715 18.271187 16.983871 14.256757 13.168674 13.168674 22.215687 20.727272 17.428572 17.666666 18.442623 15.638889 16.823530 17.393940 16.656717 17.136364 
dram[8]: 19.685184 17.655737 18.344828 16.060606 13.170732 13.612500 22.540001 21.490566 18.016394 19.491228 16.656717 15.802817 17.318182 18.596775 16.716417 17.400000 
dram[9]: 17.031746 17.322580 17.932203 16.609375 14.263158 12.157304 21.169811 20.927273 16.784615 16.537313 16.231884 16.626865 16.328571 15.608109 17.793652 17.242424 
dram[10]: 17.177420 16.104477 18.344828 15.057143 11.695652 11.720430 20.125000 20.945454 15.394366 15.577465 16.507463 15.369863 15.157895 15.144737 15.676056 16.661764 
average row locality = 194556/11780 = 16.515789
number of total memory accesses made:
dram[0]:         0         0         0         0         0         0         0         0         0         0         0         0         0         0         0         0 
dram[1]:         0         0         0         0         0         0         0         0         0         0         0         0         0         0         0         0 
dram[2]:         0         0         0         0         0         0         0         0         0         0         0         0         0         0         0         0 
dram[3]:         0         0         0         0         0         0         0         0         0         0         0         0         0         0         0         0 
dram[4]:         0         0         0         0         0         0         0         0         0         0         0         0         0         0         0         0 
dram[5]:         0         0         0         0         0         0         0         0         0         0         0         0         0         0         0         0 
dram[6]:         0         0         0         0         0         0         0         0         0         0         0         0         0         0         0         0 
dram[7]:         0         0         0         0         0         0         0         0         0         0         0         0         0         0         0         0 
dram[8]:         0         0         0         0         0         0         0         0         0         0         0         0         0         0         0         0 
dram[9]:         0         0         0         0         0         0         0         0         0         0         0         0         0         0         0         0 
dram[10]:         0         0         0         0         0         0         0         0         0         0         0         0         0         0         0         0 
total accesses: 0
min_bank_accesses = 0!
min_chip_accesses = 0!
number of total read accesses:
dram[0]:       561       560       560       560       560       560       560       560       560       560       548       548       560       560       560       560 
dram[1]:       560       560       560       560       560       560       560       560       560       560       549       549       560       560       560       560 
dram[2]:       560       560       560       560       560       560       560       560       560       560       549       549       560       560       560       560 
dram[3]:       560       560       560       560       560       560       560       560       560       560       549       549       560       560       560       560 
dram[4]:       560       560       560       560       560       560       560       560       560       560       549       549       560       560       561       561 
dram[5]:       560       560       560       560       560       560       560       560       560       560       548       548       560       560       561       561 
dram[6]:       560       560       560       560       560       560       560       560       560       560       548       548       560       560       561       561 
dram[7]:       560       560       560       560       560       560       560       560       560       560       548       548       560       560       561       561 
dram[8]:       560       560       560       560       560       560       560       560       560       560       548       548       560       560       561       561 
dram[9]:       560       560       560       560       560       560       560       560       560       560       548       548       560       560       561       561 
dram[10]:       560       560       560       560       560       560       560       560       560       560       548       548       560       560       561       560 
total reads: 98318
bank skew: 561/548 = 1.02
chip skew: 8940/8937 = 1.00
number of total write accesses:
dram[0]:       494       517       508       501       519       517       560       589       536       556       557       565       588       603       563       562 
dram[1]:       504       514       494       504       523       524       570       583       536       553       570       570       582       591       560       568 
dram[2]:       502       517       497       497       520       527       580       580       548       553       568       579       589       590       552       565 
dram[3]:       503       515       500       502       520       520       566       587       538       555       566       562       578       598       558       566 
dram[4]:       510       516       500       504       515       519       562       592       533       550       567       565       587       592       553       579 
dram[5]:       492       522       508       498       513       521       568       588       538       549       557       575       595       598       555       568 
dram[6]:       497       512       498       502       524       526       566       586       535       552       566       567       578       595       563       568 
dram[7]:       506       518       493       495       533       533       573       580       538       553       577       578       584       588       555       570 
dram[8]:       503       517       504       500       520       529       567       579       539       551       568       574       583       593       559       570 
dram[9]:       513       514       498       503       524       522       562       591       531       548       572       566       583       595       560       577 
dram[10]:       505       519       504       494       516       530       567       592       533       546       558       574       592       591       552       573 
total reads: 96238
bank skew: 603/492 = 1.23
chip skew: 8774/8734 = 1.00
average mf latency per bank:
dram[0]:      17642     17301     17211     17396     15849     15572     16366     16124     14163     13717     14828     14528     13567     13507     14526     14334
dram[1]:      18015     17762     17165     17062     15812     15641     16225     16038     13854     13598     14990     14764     13738     13601     14334     14234
dram[2]:      18197     17771     16959     16749     15705     15731     16397     16269     13829     13671     14616     14406     14160     14186     14074     13851
dram[3]:      17968     17717     17050     16950     16120     15957     16401     16118     14297     14235     14338     14199     14443     14146     13823     13606
dram[4]:      18120     17999     16699     16497     16243     16180     16237     15611     14643     14276     14125     14028     14272     14000     14116     13868
dram[5]:      18597     18166     16491     16590     16142     15880     15721     15370     14601     14173     14579     14413     14213     14238     14012     13647
dram[6]:      18512     18105     16464     16472     16362     16072     15645     15507     14220     13907     14972     14771     14055     13827     14004     13752
dram[7]:      18767     18444     16583     16564     15960     16008     16023     15943     13848     13553     14924     14700     13889     13679     13786     13728
dram[8]:      18597     18264     16780     16805     16021     15820     16243     15910     13726     13544     14729     14589     14098     14033     13870     13683
dram[9]:      18137     17936     16931     16721     15766     15587     16141     15756     14170     14006     14748     14664     13942     13593     14314     14199
dram[10]:      17856     17511     16860     16990     15919     15803     16180     15693     14084     13603     15178     15038     13565     13434     14508     14161
maximum mf latency per bank:
dram[0]:      39799     39804     39823     39833     39794     39839     39834     39858     39810     39818     39817     39841     39803     39809     39817     39829
dram[1]:      39833     39821     39823     39838     39798     39805     39833     39842     39811     39805     39811     39844     39809     39801     39809     39826
dram[2]:      39828     39816     39816     39818     39794     39790     39838     39828     39817     39803     39811     39827     39831     39805     39815     39838
dram[3]:      39822     39819     39818     39801     39797     39790     39837     39828     39844     39830     39815     39852     39824     39820     39820     39829
dram[4]:      39819     39830     39810     39797     39807     39814     39833     39836     39818     39850     39813     39801     39817     39834     39788     39798
dram[5]:      39817     39817     39819     39793     39806     39830     39806     39823     39835     39836     39812     39829     39819     39815     39804     39799
dram[6]:      39821     39819     39816     39805     39810     39818     39795     39808     39825     39825     39833     39813     39820     39831     39807     39796
dram[7]:      39813     39790     39814     39803     39806     39807     39826     39835     39833     39833     39817     39818     39816     39817     39794     39795
dram[8]:      39799     39814     39819     39840     39795     39810     39830     39825     39821     39844     39818     39811     39805     39797     39809     39809
dram[9]:      39819     39793     39820     39838     39803     39786     39822     39831     39837     39788     39815     39827     39800     39794     39819     39839
dram[10]:      39813     39807     39820     39830     39787     39799     39817     39835     39810     39817     39819     39849     39790     39811     39813     39854
Memory Partition 0: 
Cache L2_bank_000:
MSHR contents

Cache L2_bank_001:
MSHR contents

In Dram Latency Queue (total = 0): 
DRAM[0]: 16 bks, busW=4 BL=8 CL=12, tRRD=2 tCCD=6, tRCD=12 tRAS=28 tRP=12 tRC=40
n_cmd=3893852 n_nop=3837078 n_act=1122 n_pre=1106 n_req=17672 n_rd=35748 n_write=18798 bw_util=0.02802
n_activity=180918 dram_eff=0.603
bk0: 2244a 3877243i bk1: 2240a 3875114i bk2: 2240a 3877102i bk3: 2240a 3874801i bk4: 2240a 3876538i bk5: 2240a 3874469i bk6: 2240a 3875512i bk7: 2240a 3873766i bk8: 2240a 3875750i bk9: 2240a 3874046i bk10: 2192a 3875278i bk11: 2192a 3873614i bk12: 2240a 3874866i bk13: 2240a 3872665i bk14: 2240a 3874971i bk15: 2240a 3872869i 
dram_util_bins: 0 0 0 0 0 0 0 0 0 0
dram_eff_bins: 0 0 0 0 0 0 0 0 0 0
mrqq: max=64 avg=0.480745
Memory Partition 1: 
Cache L2_bank_002:
MSHR contents

Cache L2_bank_003:
MSHR contents

In Dram Latency Queue (total = 0): 
DRAM[1]: 16 bks, busW=4 BL=8 CL=12, tRRD=2 tCCD=6, tRCD=12 tRAS=28 tRP=12 tRC=40
n_cmd=3893852 n_nop=3837112 n_act=1077 n_pre=1061 n_req=17684 n_rd=35752 n_write=18850 bw_util=0.02805
n_activity=179769 dram_eff=0.6075
bk0: 2240a 3876431i bk1: 2240a 3874755i bk2: 2240a 3876975i bk3: 2240a 3874887i bk4: 2240a 3875899i bk5: 2240a 3873967i bk6: 2240a 3875392i bk7: 2240a 3873839i bk8: 2240a 3876409i bk9: 2240a 3873882i bk10: 2196a 3875238i bk11: 2196a 3873588i bk12: 2240a 3875616i bk13: 2240a 3873064i bk14: 2240a 3874788i bk15: 2240a 3872907i 
dram_util_bins: 0 0 0 0 0 0 0 0 0 0
dram_eff_bins: 0 0 0 0 0 0 0 0 0 0
mrqq: max=64 avg=0.478814
Memory Partition 2: 
Cache L2_bank_004:
MSHR contents

Cache L2_bank_005:
MSHR contents

In Dram Latency Queue (total = 0): 
DRAM[2]: 16 bks, busW=4 BL=8 CL=12, tRRD=2 tCCD=6, tRCD=12 tRAS=28 tRP=12 tRC=40
n_cmd=3893852 n_nop=3837167 n_act=1040 n_pre=1024 n_req=17702 n_rd=35752 n_write=18869 bw_util=0.02805
n_activity=179908 dram_eff=0.6072
bk0: 2240a 3877148i bk1: 2240a 3875331i bk2: 2240a 3876852i bk3: 2240a 3875025i bk4: 2240a 3875761i bk5: 2240a 3874191i bk6: 2240a 3875828i bk7: 2240a 3874009i bk8: 2240a 3875656i bk9: 2240a 3874134i bk10: 2196a 3874929i bk11: 2196a 3873527i bk12: 2240a 3875428i bk13: 2240a 3873001i bk14: 2240a 3874868i bk15: 2240a 3872967i 
dram_util_bins: 0 0 0 0 0 0 0 0 0 0
dram_eff_bins: 0 0 0 0 0 0 0 0 0 0
mrqq: max=64 avg=0.473983
Memory Partition 3: 
Cache L2_bank_006:
MSHR contents

Cache L2_bank_007:
MSHR contents

In Dram Latency Queue (total = 0): 
DRAM[3]: 16 bks, busW=4 BL=8 CL=12, tRRD=2 tCCD=6, tRCD=12 tRAS=28 tRP=12 tRC=40
n_cmd=3893852 n_nop=3837262 n_act=1027 n_pre=1011 n_req=17672 n_rd=35752 n_write=18800 bw_util=0.02802
n_activity=179688 dram_eff=0.6072
bk0: 2240a 3877144i bk1: 2240a 3874902i bk2: 2240a 3876984i bk3: 2240a 3875389i bk4: 2240a 3876340i bk5: 2240a 3874376i bk6: 2240a 3875908i bk7: 2240a 3873844i bk8: 2240a 3875784i bk9: 2240a 3874648i bk10: 2196a 3874774i bk11: 2196a 3873443i bk12: 2240a 3875267i bk13: 2240a 3873487i bk14: 2240a 3874894i bk15: 2240a 3873245i 
dram_util_bins: 0 0 0 0 0 0 0 0 0 0
dram_eff_bins: 0 0 0 0 0 0 0 0 0 0
mrqq: max=64 avg=0.477478
Memory Partition 4: 
Cache L2_bank_008:
MSHR contents

Cache L2_bank_009:
MSHR contents

In Dram Latency Queue (total = 0): 
DRAM[4]: 16 bks, busW=4 BL=8 CL=12, tRRD=2 tCCD=6, tRCD=12 tRAS=28 tRP=12 tRC=40
n_cmd=3893852 n_nop=3837184 n_act=1061 n_pre=1045 n_req=17684 n_rd=35760 n_write=18802 bw_util=0.02802
n_activity=181082 dram_eff=0.6026
bk0: 2240a 3876718i bk1: 2240a 3875402i bk2: 2240a 3876846i bk3: 2240a 3874747i bk4: 2240a 3876377i bk5: 2240a 3874525i bk6: 2240a 3875936i bk7: 2240a 3873722i bk8: 2240a 3875526i bk9: 2240a 3873872i bk10: 2196a 3875493i bk11: 2196a 3873952i bk12: 2240a 3875147i bk13: 2240a 3872915i bk14: 2244a 3875555i bk15: 2244a 3873560i 
dram_util_bins: 0 0 0 0 0 0 0 0 0 0
dram_eff_bins: 0 0 0 0 0 0 0 0 0 0
mrqq: max=64 avg=0.480693
Memory Partition 5: 
Cache L2_bank_010:
MSHR contents

Cache L2_bank_011:
MSHR contents

In Dram Latency Queue (total = 0): 
DRAM[5]: 16 bks, busW=4 BL=8 CL=12, tRRD=2 tCCD=6, tRCD=12 tRAS=28 tRP=12 tRC=40
n_cmd=3893852 n_nop=3837056 n_act=1121 n_pre=1105 n_req=17683 n_rd=35752 n_write=18818 bw_util=0.02803
n_activity=180968 dram_eff=0.6031
bk0: 2240a 3877018i bk1: 2240a 3874899i bk2: 2240a 3877383i bk3: 2240a 3874453i bk4: 2240a 3876097i bk5: 2240a 3873973i bk6: 2240a 3875632i bk7: 2240a 3873809i bk8: 2240a 3875767i bk9: 2240a 3874455i bk10: 2192a 3875327i bk11: 2192a 3874088i bk12: 2240a 3874832i bk13: 2240a 3872607i bk14: 2244a 3875091i bk15: 2244a 3873112i 
dram_util_bins: 0 0 0 0 0 0 0 0 0 0
dram_eff_bins: 0 0 0 0 0 0 0 0 0 0
mrqq: max=64 avg=0.480341
Memory Partition 6: 
Cache L2_bank_012:
MSHR contents

Cache L2_bank_013:
MSHR contents

In Dram Latency Queue (total = 0): 
DRAM[6]: 16 bks, busW=4 BL=8 CL=12, tRRD=2 tCCD=6, tRCD=12 tRAS=28 tRP=12 tRC=40
n_cmd=3893852 n_nop=3837178 n_act=1076 n_pre=1060 n_req=17673 n_rd=35752 n_write=18786 bw_util=0.02801
n_activity=179724 dram_eff=0.6069
bk0: 2240a 3876822i bk1: 2240a 3875309i bk2: 2240a 3877283i bk3: 2240a 3875079i bk4: 2240a 3875933i bk5: 2240a 3874080i bk6: 2240a 3875377i bk7: 2240a 3873662i bk8: 2240a 3875835i bk9: 2240a 3873827i bk10: 2192a 3875485i bk11: 2192a 3873617i bk12: 2240a 3875430i bk13: 2240a 3872693i bk14: 2244a 3874838i bk15: 2244a 3873710i 
dram_util_bins: 0 0 0 0 0 0 0 0 0 0
dram_eff_bins: 0 0 0 0 0 0 0 0 0 0
mrqq: max=64 avg=0.476437
Memory Partition 7: 
Cache L2_bank_014:
MSHR contents

Cache L2_bank_015:
MSHR contents

In Dram Latency Queue (total = 0): 
DRAM[7]: 16 bks, busW=4 BL=8 CL=12, tRRD=2 tCCD=6, tRCD=12 tRAS=28 tRP=12 tRC=40
n_cmd=3893852 n_nop=3837137 n_act=1049 n_pre=1033 n_req=17712 n_rd=35752 n_write=18881 bw_util=0.02806
n_activity=180200 dram_eff=0.6064
bk0: 2240a 3877668i bk1: 2240a 3875532i bk2: 2240a 3876855i bk3: 2240a 3874781i bk4: 2240a 3876097i bk5: 2240a 3873691i bk6: 2240a 3875778i bk7: 2240a 3873569i bk8: 2240a 3875864i bk9: 2240a 3874456i bk10: 2192a 3875699i bk11: 2192a 3873318i bk12: 2240a 3875115i bk13: 2240a 3872920i bk14: 2244a 3874965i bk15: 2244a 3873298i 
dram_util_bins: 0 0 0 0 0 0 0 0 0 0
dram_eff_bins: 0 0 0 0 0 0 0 0 0 0
mrqq: max=64 avg=0.474016
Memory Partition 8: 
Cache L2_bank_016:
MSHR contents

Cache L2_bank_017:
MSHR contents

In Dram Latency Queue (total = 0): 
DRAM[8]: 16 bks, busW=4 BL=8 CL=12, tRRD=2 tCCD=6, tRCD=12 tRAS=28 tRP=12 tRC=40
n_cmd=3893852 n_nop=3837231 n_act=1020 n_pre=1004 n_req=17694 n_rd=35752 n_write=18845 bw_util=0.02804
n_activity=180055 dram_eff=0.6064
bk0: 2240a 3877824i bk1: 2240a 3874891i bk2: 2240a 3876838i bk3: 2240a 3874686i bk4: 2240a 3875850i bk5: 2240a 3874098i bk6: 2240a 3876148i bk7: 2240a 3874266i bk8: 2240a 3875943i bk9: 2240a 3874313i bk10: 2192a 3875275i bk11: 2192a 3873308i bk12: 2240a 3874934i bk13: 2240a 3873380i bk14: 2244a 3874846i bk15: 2244a 3873559i 
dram_util_bins: 0 0 0 0 0 0 0 0 0 0
dram_eff_bins: 0 0 0 0 0 0 0 0 0 0
mrqq: max=64 avg=0.475023
Memory Partition 9: 
Cache L2_bank_018:
MSHR contents

Cache L2_bank_019:
MSHR contents

In Dram Latency Queue (total = 0): 
DRAM[9]: 16 bks, busW=4 BL=8 CL=12, tRRD=2 tCCD=6, tRCD=12 tRAS=28 tRP=12 tRC=40
n_cmd=3893852 n_nop=3837161 n_act=1062 n_pre=1046 n_req=17697 n_rd=35752 n_write=18831 bw_util=0.02804
n_activity=181389 dram_eff=0.6018
bk0: 2240a 3877224i bk1: 2240a 3875724i bk2: 2240a 3876891i bk3: 2240a 3874864i bk4: 2240a 3876301i bk5: 2240a 3874400i bk6: 2240a 3875989i bk7: 2240a 3874259i bk8: 2240a 3876199i bk9: 2240a 3874249i bk10: 2192a 3875329i bk11: 2192a 3873806i bk12: 2240a 3875289i bk13: 2240a 3873370i bk14: 2244a 3875399i bk15: 2244a 3873844i 
dram_util_bins: 0 0 0 0 0 0 0 0 0 0
dram_eff_bins: 0 0 0 0 0 0 0 0 0 0
mrqq: max=64 avg=0.479253
Memory Partition 10: 
Cache L2_bank_020:
MSHR contents

Cache L2_bank_021:
MSHR contents

In Dram Latency Queue (total = 0): 
DRAM[10]: 16 bks, busW=4 BL=8 CL=12, tRRD=2 tCCD=6, tRCD=12 tRAS=28 tRP=12 tRC=40
n_cmd=3893852 n_nop=3837029 n_act=1126 n_pre=1110 n_req=17683 n_rd=35748 n_write=18839 bw_util=0.02804
n_activity=181256 dram_eff=0.6023
bk0: 2240a 3876919i bk1: 2240a 3874935i bk2: 2240a 3876950i bk3: 2240a 3874493i bk4: 2240a 3875987i bk5: 2240a 3873804i bk6: 2240a 3876070i bk7: 2240a 3873685i bk8: 2240a 3875629i bk9: 2240a 3873909i bk10: 2192a 3875785i bk11: 2192a 3874415i bk12: 2240a 3874849i bk13: 2240a 3872890i bk14: 2244a 3874757i bk15: 2240a 3873286i 
dram_util_bins: 0 0 0 0 0 0 0 0 0 0
dram_eff_bins: 0 0 0 0 0 0 0 0 0 0
mrqq: max=64 avg=0.482018

========= L2 cache stats =========
L2_cache_bank[0]: Access = 20620, Miss = 4469, Miss_rate = 0.217, Pending_hits = 9086, Reservation_fails = 7
L2_cache_bank[1]: Access = 20905, Miss = 4468, Miss_rate = 0.214, Pending_hits = 9211, Reservation_fails = 3
L2_cache_bank[2]: Access = 20570, Miss = 4469, Miss_rate = 0.217, Pending_hits = 9037, Reservation_fails = 6
L2_cache_bank[3]: Access = 20910, Miss = 4469, Miss_rate = 0.214, Pending_hits = 9228, Reservation_fails = 4
L2_cache_bank[4]: Access = 20562, Miss = 4469, Miss_rate = 0.217, Pending_hits = 9074, Reservation_fails = 2
L2_cache_bank[5]: Access = 20901, Miss = 4469, Miss_rate = 0.214, Pending_hits = 9204, Reservation_fails = 5
L2_cache_bank[6]: Access = 20556, Miss = 4469, Miss_rate = 0.217, Pending_hits = 9055, Reservation_fails = 7
L2_cache_bank[7]: Access = 20897, Miss = 4469, Miss_rate = 0.214, Pending_hits = 9238, Reservation_fails = 10
L2_cache_bank[8]: Access = 20582, Miss = 4470, Miss_rate = 0.217, Pending_hits = 9121, Reservation_fails = 6
L2_cache_bank[9]: Access = 20926, Miss = 4470, Miss_rate = 0.214, Pending_hits = 9297, Reservation_fails = 3
L2_cache_bank[10]: Access = 20583, Miss = 4469, Miss_rate = 0.217, Pending_hits = 9061, Reservation_fails = 6
L2_cache_bank[11]: Access = 20925, Miss = 4469, Miss_rate = 0.214, Pending_hits = 9262, Reservation_fails = 4
L2_cache_bank[12]: Access = 20590, Miss = 4469, Miss_rate = 0.217, Pending_hits = 9047, Reservation_fails = 10
L2_cache_bank[13]: Access = 20929, Miss = 4469, Miss_rate = 0.214, Pending_hits = 9217, Reservation_fails = 3
L2_cache_bank[14]: Access = 20586, Miss = 4469, Miss_rate = 0.217, Pending_hits = 9076, Reservation_fails = 9
L2_cache_bank[15]: Access = 20925, Miss = 4469, Miss_rate = 0.214, Pending_hits = 9203, Reservation_fails = 4
L2_cache_bank[16]: Access = 20580, Miss = 4469, Miss_rate = 0.217, Pending_hits = 9071, Reservation_fails = 4
L2_cache_bank[17]: Access = 20920, Miss = 4469, Miss_rate = 0.214, Pending_hits = 9227, Reservation_fails = 4
L2_cache_bank[18]: Access = 20578, Miss = 4469, Miss_rate = 0.217, Pending_hits = 9104, Reservation_fails = 6
L2_cache_bank[19]: Access = 20921, Miss = 4469, Miss_rate = 0.214, Pending_hits = 9260, Reservation_fails = 10
L2_cache_bank[20]: Access = 20581, Miss = 4469, Miss_rate = 0.217, Pending_hits = 9078, Reservation_fails = 6
L2_cache_bank[21]: Access = 20897, Miss = 4468, Miss_rate = 0.214, Pending_hits = 9249, Reservation_fails = 6
L2_total_cache_accesses = 456444
L2_total_cache_misses = 98318
L2_total_cache_miss_rate = 0.2154
L2_total_cache_pending_hits = 201406
L2_total_cache_reservation_fails = 125
L2_total_cache_breakdown:
	L2_cache_stats_breakdown[GLOBAL_ACC_R][HIT] = 135801
	L2_cache_stats_breakdown[GLOBAL_ACC_R][HIT_RESERVED] = 145119
	L2_cache_stats_breakdown[GLOBAL_ACC_R][MISS] = 65536
	L2_cache_stats_breakdown[GLOBAL_ACC_R][RESERVATION_FAIL] = 0
	L2_cache_stats_breakdown[LOCAL_ACC_R][HIT] = 0
	L2_cache_stats_breakdown[LOCAL_ACC_R][HIT_RESERVED] = 0
	L2_cache_stats_breakdown[LOCAL_ACC_R][MISS] = 0
	L2_cache_stats_breakdown[LOCAL_ACC_R][RESERVATION_FAIL] = 0
	L2_cache_stats_breakdown[CONST_ACC_R][HIT] = 28
	L2_cache_stats_breakdown[CONST_ACC_R][HIT_RESERVED] = 27
	L2_cache_stats_breakdown[CONST_ACC_R][MISS] = 1
	L2_cache_stats_breakdown[CONST_ACC_R][RESERVATION_FAIL] = 0
	L2_cache_stats_breakdown[TEXTURE_ACC_R][HIT] = 0
	L2_cache_stats_breakdown[TEXTURE_ACC_R][HIT_RESERVED] = 0
	L2_cache_stats_breakdown[TEXTURE_ACC_R][MISS] = 0
	L2_cache_stats_breakdown[TEXTURE_ACC_R][RESERVATION_FAIL] = 0
	L2_cache_stats_breakdown[GLOBAL_ACC_W][HIT] = 20880
	L2_cache_stats_breakdown[GLOBAL_ACC_W][HIT_RESERVED] = 55920
	L2_cache_stats_breakdown[GLOBAL_ACC_W][MISS] = 32768
	L2_cache_stats_breakdown[GLOBAL_ACC_W][RESERVATION_FAIL] = 125
	L2_cache_stats_breakdown[LOCAL_ACC_W][HIT] = 0
	L2_cache_stats_breakdown[LOCAL_ACC_W][HIT_RESERVED] = 0
	L2_cache_stats_breakdown[LOCAL_ACC_W][MISS] = 0
	L2_cache_stats_breakdown[LOCAL_ACC_W][RESERVATION_FAIL] = 0
	L2_cache_stats_breakdown[L1_WRBK_ACC][HIT] = 0
	L2_cache_stats_breakdown[L1_WRBK_ACC][HIT_RESERVED] = 0
	L2_cache_stats_breakdown[L1_WRBK_ACC][MISS] = 0
	L2_cache_stats_breakdown[L1_WRBK_ACC][RESERVATION_FAIL] = 0
	L2_cache_stats_breakdown[L2_WRBK_ACC][HIT] = 0
	L2_cache_stats_breakdown[L2_WRBK_ACC][HIT_RESERVED] = 0
	L2_cache_stats_breakdown[L2_WRBK_ACC][MISS] = 0
	L2_cache_stats_breakdown[L2_WRBK_ACC][RESERVATION_FAIL] = 0
	L2_cache_stats_breakdown[INST_ACC_R][HIT] = 11
	L2_cache_stats_breakdown[INST_ACC_R][HIT_RESERVED] = 340
	L2_cache_stats_breakdown[INST_ACC_R][MISS] = 13
	L2_cache_stats_breakdown[INST_ACC_R][RESERVATION_FAIL] = 0
	L2_cache_stats_breakdown[L1_WR_ALLOC_R][HIT] = 0
	L2_cache_stats_breakdown[L1_WR_ALLOC_R][HIT_RESERVED] = 0
	L2_cache_stats_breakdown[L1_WR_ALLOC_R][MISS] = 0
	L2_cache_stats_breakdown[L1_WR_ALLOC_R][RESERVATION_FAIL] = 0
	L2_cache_stats_breakdown[L2_WR_ALLOC_R][HIT] = 0
	L2_cache_stats_breakdown[L2_WR_ALLOC_R][HIT_RESERVED] = 0
	L2_cache_stats_breakdown[L2_WR_ALLOC_R][MISS] = 0
	L2_cache_stats_breakdown[L2_WR_ALLOC_R][RESERVATION_FAIL] = 0
	L2_cache_stats_breakdown[GLOBAL_ACC_R][TOTAL_ACCESS] = 346456
[...]
F:  1335068----T:  1343308 	 St: c0a21000 Sz: 61440 	 Sm: 0 	 T: memcpy_h2d(5.563808)
F:  1343308----T:  1345913 	 St: c0610000 Sz: 4096 	 Sm: 0 	 T: memcpy_h2d(1.758947)
F:  1345913----T:  1354153 	 St: c0611000 Sz: 61440 	 Sm: 0 	 T: memcpy_h2d(5.563808)
F:  1354153----T:  1356758 	 St: c0620000 Sz: 4096 	 Sm: 0 	 T: memcpy_h2d(1.758947)
F:  1356758----T:  1364998 	 St: c0621000 Sz: 61440 	 Sm: 0 	 T: memcpy_h2d(5.563808)
F:  1365664----T:  1368750 	 St: c0230000 Sz: 12288 	 Sm: 0 	 T: memcpy_h2d(2.083727)
F:  1368750----T:  1376072 	 St: c0233000 Sz: 53248 	 Sm: 0 	 T: memcpy_h2d(4.943957)
F:  1376072----T:  1378677 	 St: c0240000 Sz: 4096 	 Sm: 0 	 T: memcpy_h2d(1.758947)
F:  1378677----T:  1386917 	 St: c0241000 Sz: 61440 	 Sm: 0 	 T: memcpy_h2d(5.563808)
F:  1386917----T:  1389522 	 St: c0a30000 Sz: 4096 	 Sm: 0 	 T: memcpy_h2d(1.758947)
F:  1389522----T:  1397762 	 St: c0a31000 Sz: 61440 	 Sm: 0 	 T: memcpy_h2d(5.563808)
F:  1397762----T:  1400367 	 St: c0a40000 Sz: 4096 	 Sm: 0 	 T: memcpy_h2d(1.758947)
F:  1400367----T:  1408607 	 St: c0a41000 Sz: 61440 	 Sm: 0 	 T: memcpy_h2d(5.563808)
F:  1408607----T:  1411693 	 St: c0630000 Sz: 12288 	 Sm: 0 	 T: memcpy_h2d(2.083727)
F:  1411693----T:  1419015 	 St: c0633000 Sz: 53248 	 Sm: 0 	 T: memcpy_h2d(4.943957)
F:  1419731----T:  1422817 	 St: c0250000 Sz: 12288 	 Sm: 0 	 T: memcpy_h2d(2.083727)
F:  1422817----T:  1430139 	 St: c0253000 Sz: 53248 	 Sm: 0 	 T: memcpy_h2d(4.943957)
F:  1430139----T:  1432744 	 St: c0640000 Sz: 4096 	 Sm: 0 	 T: memcpy_h2d(1.758947)
F:  1432744----T:  1440984 	 St: c0641000 Sz: 61440 	 Sm: 0 	 T: memcpy_h2d(5.563808)
F:  1440984----T:  1443589 	 St: c0a50000 Sz: 4096 	 Sm: 0 	 T: memcpy_h2d(1.758947)
F:  1443589----T:  1451829 	 St: c0a51000 Sz: 61440 	 Sm: 0 	 T: memcpy_h2d(5.563808)
F:  1452570----T:  1455656 	 St: c0260000 Sz: 12288 	 Sm: 0 	 T: memcpy_h2d(2.083727)
F:  1455656----T:  1462978 	 St: c0263000 Sz: 53248 	 Sm: 0 	 T: memcpy_h2d(4.943957)
F:  1462978----T:  1465583 	 St: c0270000 Sz: 4096 	 Sm: 0 	 T: memcpy_h2d(1.758947)
F:  1465583----T:  1473823 	 St: c0271000 Sz: 61440 	 Sm: 0 	 T: memcpy_h2d(5.563808)
F:  1473823----T:  1476428 	 St: c0650000 Sz: 4096 	 Sm: 0 	 T: memcpy_h2d(1.758947)
F:  1476428----T:  1484668 	 St: c0651000 Sz: 61440 	 Sm: 0 	 T: memcpy_h2d(5.563808)
F:  1484668----T:  1487273 	 St: c0a60000 Sz: 4096 	 Sm: 0 	 T: memcpy_h2d(1.758947)
F:  1487273----T:  1495513 	 St: c0a61000 Sz: 61440 	 Sm: 0 	 T: memcpy_h2d(5.563808)
F:  1495513----T:  1498118 	 St: c0a70000 Sz: 4096 	 Sm: 0 	 T: memcpy_h2d(1.758947)
F:  1498118----T:  1506358 	 St: c0a71000 Sz: 61440 	 Sm: 0 	 T: memcpy_h2d(5.563808)
F:  1506358----T:  1508963 	 St: c0660000 Sz: 4096 	 Sm: 0 	 T: memcpy_h2d(1.758947)
F:  1508963----T:  1517203 	 St: c0661000 Sz: 61440 	 Sm: 0 	 T: memcpy_h2d(5.563808)
F:  1518419----T:  1521505 	 St: c0280000 Sz: 12288 	 Sm: 0 	 T: memcpy_h2d(2.083727)
F:  1521505----T:  1528827 	 St: c0283000 Sz: 53248 	 Sm: 0 	 T: memcpy_h2d(4.943957)
F:  1528827----T:  1531432 	 St: c0670000 Sz: 4096 	 Sm: 0 	 T: memcpy_h2d(1.758947)
F:  1531432----T:  1539672 	 St: c0671000 Sz: 61440 	 Sm: 0 	 T: memcpy_h2d(5.563808)
F:  1539672----T:  1542277 	 St: c0a80000 Sz: 4096 	 Sm: 0 	 T: memcpy_h2d(1.758947)
F:  1542277----T:  1550517 	 St: c0a81000 Sz: 61440 	 Sm: 0 	 T: memcpy_h2d(5.563808)
F:  1551183----T:  1554269 	 St: c0290000 Sz: 12288 	 Sm: 0 	 T: memcpy_h2d(2.083727)
F:  1554269----T:  1561591 	 St: c0293000 Sz: 53248 	 Sm: 0 	 T: memcpy_h2d(4.943957)
F:  1561591----T:  1564196 	 St: c02a0000 Sz: 4096 	 Sm: 0 	 T: memcpy_h2d(1.758947)
F:  1564196----T:  1572436 	 St: c02a1000 Sz: 61440 	 Sm: 0 	 T: memcpy_h2d(5.563808)
F:  1572436----T:  1575041 	 St: c0680000 Sz: 4096 	 Sm: 0 	 T: memcpy_h2d(1.758947)
F:  1575041----T:  1583281 	 St: c0681000 Sz: 61440 	 Sm: 0 	 T: memcpy_h2d(5.563808)
F:  1583281----T:  1585886 	 St: c0a90000 Sz: 4096 	 Sm: 0 	 T: memcpy_h2d(1.758947)
F:  1585886----T:  1594126 	 St: c0a91000 Sz: 61440 	 Sm: 0 	 T: memcpy_h2d(5.563808)
F:  1594126----T:  1596731 	 St: c0aa0000 Sz: 4096 	 Sm: 0 	 T: memcpy_h2d(1.758947)
F:  1596731----T:  1604971 	 St: c0aa1000 Sz: 61440 	 Sm: 0 	 T: memcpy_h2d(5.563808)
F:  1604971----T:  1607576 	 St: c0690000 Sz: 4096 	 Sm: 0 	 T: memcpy_h2d(1.758947)
F:  1607576----T:  1615816 	 St: c0691000 Sz: 61440 	 Sm: 0 	 T: memcpy_h2d(5.563808)
F:  1617150----T:  1620236 	 St: c02b0000 Sz: 12288 	 Sm: 0 	 T: memcpy_h2d(2.083727)
F:  1620236----T:  1627558 	 St: c02b3000 Sz: 53248 	 Sm: 0 	 T: memcpy_h2d(4.943957)
F:  1627558----T:  1630644 	 St: c06a0000 Sz: 12288 	 Sm: 0 	 T: memcpy_h2d(2.083727)
F:  1630644----T:  1637966 	 St: c06a3000 Sz: 53248 	 Sm: 0 	 T: memcpy_h2d(4.943957)
F:  1637966----T:  1640571 	 St: c0ab0000 Sz: 4096 	 Sm: 0 	 T: memcpy_h2d(1.758947)
F:  1640571----T:  1648811 	 St: c0ab1000 Sz: 61440 	 Sm: 0 	 T: memcpy_h2d(5.563808)
F:  1649477----T:  1652563 	 St: c02c0000 Sz: 12288 	 Sm: 0 	 T: memcpy_h2d(2.083727)
F:  1652563----T:  1659885 	 St: c02c3000 Sz: 53248 	 Sm: 0 	 T: memcpy_h2d(4.943957)
F:  1659885----T:  1662490 	 St: c02d0000 Sz: 4096 	 Sm: 0 	 T: memcpy_h2d(1.758947)
F:  1662490----T:  1670730 	 St: c02d1000 Sz: 61440 	 Sm: 0 	 T: memcpy_h2d(5.563808)
F:  1670730----T:  1675371 	 St: c06b0000 Sz: 28672 	 Sm: 0 	 T: memcpy_h2d(3.133693)
F:  1675371----T:  1680886 	 St: c06b7000 Sz: 36864 	 Sm: 0 	 T: memcpy_h2d(3.723835)
F:  1680886----T:  1683491 	 St: c0ac0000 Sz: 4096 	 Sm: 0 	 T: memcpy_h2d(1.758947)
F:  1683491----T:  1691731 	 St: c0ac1000 Sz: 61440 	 Sm: 0 	 T: memcpy_h2d(5.563808)
F:  1691731----T:  1694336 	 St: c0ad0000 Sz: 4096 	 Sm: 0 	 T: memcpy_h2d(1.758947)
F:  1694336----T:  1702576 	 St: c0ad1000 Sz: 61440 	 Sm: 0 	 T: memcpy_h2d(5.563808)
F:  1702576----T:  1705181 	 St: c06c0000 Sz: 4096 	 Sm: 0 	 T: memcpy_h2d(1.758947)
F:  1705181----T:  1713421 	 St: c06c1000 Sz: 61440 	 Sm: 0 	 T: memcpy_h2d(5.563808)
F:  1714502----T:  1717588 	 St: c02e0000 Sz: 12288 	 Sm: 0 	 T: memcpy_h2d(2.083727)
F:  1717588----T:  1724910 	 St: c02e3000 Sz: 53248 	 Sm: 0 	 T: memcpy_h2d(4.943957)
F:  1724910----T:  1727515 	 St: c06d0000 Sz: 4096 	 Sm: 0 	 T: memcpy_h2d(1.758947)
F:  1727515----T:  1735755 	 St: c06d1000 Sz: 61440 	 Sm: 0 	 T: memcpy_h2d(5.563808)
F:  1735755----T:  1738360 	 St: c0ae0000 Sz: 4096 	 Sm: 0 	 T: memcpy_h2d(1.758947)
F:  1738360----T:  1746600 	 St: c0ae1000 Sz: 61440 	 Sm: 0 	 T: memcpy_h2d(5.563808)
F:  1747191----T:  1750277 	 St: c02f0000 Sz: 12288 	 Sm: 0 	 T: memcpy_h2d(2.083727)
F:  1750277----T:  1757599 	 St: c02f3000 Sz: 53248 	 Sm: 0 	 T: memcpy_h2d(4.943957)
F:  1757599----T:  1760204 	 St: c0300000 Sz: 4096 	 Sm: 0 	 T: memcpy_h2d(1.758947)
F:  1760204----T:  1768444 	 St: c0301000 Sz: 61440 	 Sm: 0 	 T: memcpy_h2d(5.563808)
F:  1768444----T:  1771049 	 St: c06e0000 Sz: 4096 	 Sm: 0 	 T: memcpy_h2d(1.758947)
F:  1771049----T:  1779289 	 St: c06e1000 Sz: 61440 	 Sm: 0 	 T: memcpy_h2d(5.563808)
F:  1779289----T:  1781894 	 St: c0af0000 Sz: 4096 	 Sm: 0 	 T: memcpy_h2d(1.758947)
F:  1781894----T:  1790134 	 St: c0af1000 Sz: 61440 	 Sm: 0 	 T: memcpy_h2d(5.563808)
F:  1790134----T:  1792739 	 St: c0b00000 Sz: 4096 	 Sm: 0 	 T: memcpy_h2d(1.758947)
F:  1792739----T:  1800979 	 St: c0b01000 Sz: 61440 	 Sm: 0 	 T: memcpy_h2d(5.563808)
F:  1800979----T:  1803584 	 St: c06f0000 Sz: 4096 	 Sm: 0 	 T: memcpy_h2d(1.758947)
F:  1803584----T:  1811824 	 St: c06f1000 Sz: 61440 	 Sm: 0 	 T: memcpy_h2d(5.563808)
F:  1812926----T:  1816012 	 St: c0310000 Sz: 12288 	 Sm: 0 	 T: memcpy_h2d(2.083727)
F:  1816012----T:  1823334 	 St: c0313000 Sz: 53248 	 Sm: 0 	 T: memcpy_h2d(4.943957)
F:  1823334----T:  1825939 	 St: c0700000 Sz: 4096 	 Sm: 0 	 T: memcpy_h2d(1.758947)
F:  1825939----T:  1834179 	 St: c0701000 Sz: 61440 	 Sm: 0 	 T: memcpy_h2d(5.563808)
F:  1834179----T:  1836784 	 St: c0b10000 Sz: 4096 	 Sm: 0 	 T: memcpy_h2d(1.758947)
F:  1836784----T:  1845024 	 St: c0b11000 Sz: 61440 	 Sm: 0 	 T: memcpy_h2d(5.563808)
F:  1845541----T:  1848627 	 St: c0320000 Sz: 12288 	 Sm: 0 	 T: memcpy_h2d(2.083727)
F:  1848627----T:  1855949 	 St: c0323000 Sz: 53248 	 Sm: 0 	 T: memcpy_h2d(4.943957)
F:  1855949----T:  1858554 	 St: c0330000 Sz: 4096 	 Sm: 0 	 T: memcpy_h2d(1.758947)
F:  1858554----T:  1866794 	 St: c0331000 Sz: 61440 	 Sm: 0 	 T: memcpy_h2d(5.563808)
F:  1866794----T:  1869399 	 St: c0710000 Sz: 4096 	 Sm: 0 	 T: memcpy_h2d(1.758947)
F:  1869399----T:  1877639 	 St: c0711000 Sz: 61440 	 Sm: 0 	 T: memcpy_h2d(5.563808)
F:  1877639----T:  1880244 	 St: c0b20000 Sz: 4096 	 Sm: 0 	 T: memcpy_h2d(1.758947)
F:  1880244----T:  1888484 	 St: c0b21000 Sz: 61440 	 Sm: 0 	 T: memcpy_h2d(5.563808)
F:  1888484----T:  1891089 	 St: c0b30000 Sz: 4096 	 Sm: 0 	 T: memcpy_h2d(1.758947)
F:  1891089----T:  1899329 	 St: c0b31000 Sz: 61440 	 Sm: 0 	 T: memcpy_h2d(5.563808)
F:  1899329----T:  1901934 	 St: c0720000 Sz: 4096 	 Sm: 0 	 T: memcpy_h2d(1.758947)
F:  1901934----T:  1910174 	 St: c0721000 Sz: 61440 	 Sm: 0 	 T: memcpy_h2d(5.563808)
F:  1911336----T:  1914422 	 St: c0340000 Sz: 12288 	 Sm: 0 	 T: memcpy_h2d(2.083727)
F:  1914422----T:  1921744 	 St: c0343000 Sz: 53248 	 Sm: 0 	 T: memcpy_h2d(4.943957)
F:  1921744----T:  1924830 	 St: c0730000 Sz: 12288 	 Sm: 0 	 T: memcpy_h2d(2.083727)
F:  1924830----T:  1932152 	 St: c0733000 Sz: 53248 	 Sm: 0 	 T: memcpy_h2d(4.943957)
F:  1932152----T:  1934757 	 St: c0b40000 Sz: 4096 	 Sm: 0 	 T: memcpy_h2d(1.758947)
F:  1934757----T:  1942997 	 St: c0b41000 Sz: 61440 	 Sm: 0 	 T: memcpy_h2d(5.563808)
F:  1943663----T:  1946749 	 St: c0350000 Sz: 12288 	 Sm: 0 	 T: memcpy_h2d(2.083727)
F:  1946749----T:  1954071 	 St: c0353000 Sz: 53248 	 Sm: 0 	 T: memcpy_h2d(4.943957)
F:  1954071----T:  1956676 	 St: c0360000 Sz: 4096 	 Sm: 0 	 T: memcpy_h2d(1.758947)
F:  1956676----T:  1964916 	 St: c0361000 Sz: 61440 	 Sm: 0 	 T: memcpy_h2d(5.563808)
F:  1964916----T:  1967521 	 St: c0740000 Sz: 4096 	 Sm: 0 	 T: memcpy_h2d(1.758947)
F:  1967521----T:  1975761 	 St: c0741000 Sz: 61440 	 Sm: 0 	 T: memcpy_h2d(5.563808)
F:  1975761----T:  1978366 	 St: c0b50000 Sz: 4096 	 Sm: 0 	 T: memcpy_h2d(1.758947)
F:  1978366----T:  1986606 	 St: c0b51000 Sz: 61440 	 Sm: 0 	 T: memcpy_h2d(5.563808)
F:  1986606----T:  1989211 	 St: c0b60000 Sz: 4096 	 Sm: 0 	 T: memcpy_h2d(1.758947)
F:  1989211----T:  1997451 	 St: c0b61000 Sz: 61440 	 Sm: 0 	 T: memcpy_h2d(5.563808)
F:  1997451----T:  2000056 	 St: c0750000 Sz: 4096 	 Sm: 0 	 T: memcpy_h2d(1.758947)
F:  2000056----T:  2008296 	 St: c0751000 Sz: 61440 	 Sm: 0 	 T: memcpy_h2d(5.563808)
F:  2009206----T:  2012292 	 St: c0370000 Sz: 12288 	 Sm: 0 	 T: memcpy_h2d(2.083727)
F:  2012292----T:  2019614 	 St: c0373000 Sz: 53248 	 Sm: 0 	 T: memcpy_h2d(4.943957)
F:  2019614----T:  2022219 	 St: c0760000 Sz: 4096 	 Sm: 0 	 T: memcpy_h2d(1.758947)
F:  2022219----T:  2030459 	 St: c0761000 Sz: 61440 	 Sm: 0 	 T: memcpy_h2d(5.563808)
F:  2030459----T:  2033064 	 St: c0b70000 Sz: 4096 	 Sm: 0 	 T: memcpy_h2d(1.758947)
F:  2033064----T:  2041304 	 St: c0b71000 Sz: 61440 	 Sm: 0 	 T: memcpy_h2d(5.563808)
F:  2041970----T:  2045056 	 St: c0380000 Sz: 12288 	 Sm: 0 	 T: memcpy_h2d(2.083727)
F:  2045056----T:  2052378 	 St: c0383000 Sz: 53248 	 Sm: 0 	 T: memcpy_h2d(4.943957)
F:  2052378----T:  2054983 	 St: c0390000 Sz: 4096 	 Sm: 0 	 T: memcpy_h2d(1.758947)
F:  2054983----T:  2063223 	 St: c0391000 Sz: 61440 	 Sm: 0 	 T: memcpy_h2d(5.563808)
F:  2063223----T:  2065828 	 St: c0770000 Sz: 4096 	 Sm: 0 	 T: memcpy_h2d(1.758947)
F:  2065828----T:  2074068 	 St: c0771000 Sz: 61440 	 Sm: 0 	 T: memcpy_h2d(5.563808)
F:  2074068----T:  2076673 	 St: c0b80000 Sz: 4096 	 Sm: 0 	 T: memcpy_h2d(1.758947)
F:  2076673----T:  2084913 	 St: c0b81000 Sz: 61440 	 Sm: 0 	 T: memcpy_h2d(5.563808)
F:  2084913----T:  2087518 	 St: c0b90000 Sz: 4096 	 Sm: 0 	 T: memcpy_h2d(1.758947)
F:  2087518----T:  2095758 	 St: c0b91000 Sz: 61440 	 Sm: 0 	 T: memcpy_h2d(5.563808)
F:  2095758----T:  2098363 	 St: c0780000 Sz: 4096 	 Sm: 0 	 T: memcpy_h2d(1.758947)
F:  2098363----T:  2106603 	 St: c0781000 Sz: 61440 	 Sm: 0 	 T: memcpy_h2d(5.563808)
F:  2107761----T:  2110847 	 St: c03a0000 Sz: 12288 	 Sm: 0 	 T: memcpy_h2d(2.083727)
F:  2110847----T:  2118169 	 St: c03a3000 Sz: 53248 	 Sm: 0 	 T: memcpy_h2d(4.943957)
F:  2118169----T:  2120774 	 St: c0790000 Sz: 4096 	 Sm: 0 	 T: memcpy_h2d(1.758947)
F:  2120774----T:  2129014 	 St: c0791000 Sz: 61440 	 Sm: 0 	 T: memcpy_h2d(5.563808)
F:  2129014----T:  2131619 	 St: c0ba0000 Sz: 4096 	 Sm: 0 	 T: memcpy_h2d(1.758947)
F:  2131619----T:  2139859 	 St: c0ba1000 Sz: 61440 	 Sm: 0 	 T: memcpy_h2d(5.563808)
F:  2140528----T:  2143614 	 St: c03b0000 Sz: 12288 	 Sm: 0 	 T: memcpy_h2d(2.083727)
F:  2143614----T:  2150936 	 St: c03b3000 Sz: 53248 	 Sm: 0 	 T: memcpy_h2d(4.943957)
F:  2150936----T:  2153541 	 St: c03c0000 Sz: 4096 	 Sm: 0 	 T: memcpy_h2d(1.758947)
F:  2153541----T:  2161781 	 St: c03c1000 Sz: 61440 	 Sm: 0 	 T: memcpy_h2d(5.563808)
F:  2161781----T:  2164386 	 St: c07a0000 Sz: 4096 	 Sm: 0 	 T: memcpy_h2d(1.758947)
F:  2164386----T:  2172626 	 St: c07a1000 Sz: 61440 	 Sm: 0 	 T: memcpy_h2d(5.563808)
F:  2172626----T:  2175231 	 St: c0bb0000 Sz: 4096 	 Sm: 0 	 T: memcpy_h2d(1.758947)
F:  2175231----T:  2183471 	 St: c0bb1000 Sz: 61440 	 Sm: 0 	 T: memcpy_h2d(5.563808)
F:  2183471----T:  2186076 	 St: c0bc0000 Sz: 4096 	 Sm: 0 	 T: memcpy_h2d(1.758947)
F:  2186076----T:  2194316 	 St: c0bc1000 Sz: 61440 	 Sm: 0 	 T: memcpy_h2d(5.563808)
F:  2194316----T:  2196921 	 St: c07b0000 Sz: 4096 	 Sm: 0 	 T: memcpy_h2d(1.758947)
F:  2196921----T:  2205161 	 St: c07b1000 Sz: 61440 	 Sm: 0 	 T: memcpy_h2d(5.563808)
F:  2206067----T:  2209153 	 St: c03d0000 Sz: 12288 	 Sm: 0 	 T: memcpy_h2d(2.083727)
F:  2209153----T:  2216475 	 St: c03d3000 Sz: 53248 	 Sm: 0 	 T: memcpy_h2d(4.943957)
F:  2216475----T:  2219080 	 St: c0bd0000 Sz: 4096 	 Sm: 0 	 T: memcpy_h2d(1.758947)
F:  2219080----T:  2227320 	 St: c0bd1000 Sz: 61440 	 Sm: 0 	 T: memcpy_h2d(5.563808)
F:  2227320----T:  2230406 	 St: c07c0000 Sz: 12288 	 Sm: 0 	 T: memcpy_h2d(2.083727)
F:  2230406----T:  2237728 	 St: c07c3000 Sz: 53248 	 Sm: 0 	 T: memcpy_h2d(4.943957)
F:  2237728----T:  2240333 	 St: c07d0000 Sz: 4096 	 Sm: 0 	 T: memcpy_h2d(1.758947)
F:  2240333----T:  2248573 	 St: c07d1000 Sz: 61440 	 Sm: 0 	 T: memcpy_h2d(5.563808)
F:  2249088----T:  2252174 	 St: c03e0000 Sz: 12288 	 Sm: 0 	 T: memcpy_h2d(2.083727)
F:  2252174----T:  2259496 	 St: c03e3000 Sz: 53248 	 Sm: 0 	 T: memcpy_h2d(4.943957)
F:  2259496----T:  2262101 	 St: c03f0000 Sz: 4096 	 Sm: 0 	 T: memcpy_h2d(1.758947)
F:  2262101----T:  2270341 	 St: c03f1000 Sz: 61440 	 Sm: 0 	 T: memcpy_h2d(5.563808)
F:  2270341----T:  2272946 	 St: c0be0000 Sz: 4096 	 Sm: 0 	 T: memcpy_h2d(1.758947)
F:  2272946----T:  2281186 	 St: c0be1000 Sz: 61440 	 Sm: 0 	 T: memcpy_h2d(5.563808)
F:  2281186----T:  2283791 	 St: c0bf0000 Sz: 4096 	 Sm: 0 	 T: memcpy_h2d(1.758947)
F:  2283791----T:  2292031 	 St: c0bf1000 Sz: 61440 	 Sm: 0 	 T: memcpy_h2d(5.563808)
F:  2292031----T:  2294636 	 St: c07e0000 Sz: 4096 	 Sm: 0 	 T: memcpy_h2d(1.758947)
F:  2294636----T:  2302876 	 St: c07e1000 Sz: 61440 	 Sm: 0 	 T: memcpy_h2d(5.563808)
F:  2307393----T:  2309998 	 St: c07f0000 Sz: 4096 	 Sm: 0 	 T: memcpy_h2d(1.758947)
F:  2309998----T:  2318238 	 St: c07f1000 Sz: 61440 	 Sm: 0 	 T: memcpy_h2d(5.563808)
F:  2541317----T:  2819613 	 	 	 Kl: 2 	 Sm: 0 	 T: kernel_launch(187.910873)
F:  3041763----T:  3320141 	 	 	 Kl: 3 	 Sm: 0 	 T: kernel_launch(187.966232)
F:  3542291----T:  3820532 	 	 	 Kl: 4 	 Sm: 0 	 T: kernel_launch(187.873734)
F:  3820532----T:  3823137 	 St: 0 Sz: 4096 	 Sm: 0 	 T: device_sync(1.758947)
F:  3820532----T:  3828772 	 St: 0 Sz: 61440 	 Sm: 0 	 T: device_sync(5.563808)
F:  3831377----T:  3833982 	 St: 0 Sz: 4096 	 Sm: 0 	 T: device_sync(1.758947)
F:  3831377----T:  3839617 	 St: 0 Sz: 61440 	 Sm: 0 	 T: device_sync(5.563808)
F:  3842222----T:  3844827 	 St: 0 Sz: 4096 	 Sm: 0 	 T: device_sync(1.758947)
F:  3842222----T:  3857917 	 St: 0 Sz: 126976 	 Sm: 0 	 T: device_sync(10.597569)
F:  3860522----T:  3863127 	 St: 0 Sz: 4096 	 Sm: 0 	 T: device_sync(1.758947)
F:  3860522----T:  3891245 	 St: 0 Sz: 258048 	 Sm: 0 	 T: device_sync(20.744766)
F:  3893850----T:  3896455 	 St: 0 Sz: 4096 	 Sm: 0 	 T: device_sync(1.758947)
F:  3893850----T:  3954686 	 St: 0 Sz: 520192 	 Sm: 0 	 T: device_sync(41.077652)
F:  3957291----T:  3959896 	 St: 0 Sz: 4096 	 Sm: 0 	 T: device_sync(1.758947)
F:  3957291----T:  4078380 	 St: 0 Sz: 1044480 	 Sm: 0 	 T: device_sync(81.761650)
F:  4080985----T:  4083590 	 St: 0 Sz: 4096 	 Sm: 0 	 T: device_sync(1.758947)
F:  4080985----T:  4089225 	 St: 0 Sz: 61440 	 Sm: 0 	 T: device_sync(5.563808)
F:  4091830----T:  4094435 	 St: 0 Sz: 4096 	 Sm: 0 	 T: device_sync(1.758947)
F:  4091830----T:  4100070 	 St: 0 Sz: 61440 	 Sm: 0 	 T: device_sync(5.563808)
F:  4102675----T:  4105280 	 St: 0 Sz: 4096 	 Sm: 0 	 T: device_sync(1.758947)
F:  4102675----T:  4118370 	 St: 0 Sz: 126976 	 Sm: 0 	 T: device_sync(10.597569)
F:  4120975----T:  4123580 	 St: 0 Sz: 4096 	 Sm: 0 	 T: device_sync(1.758947)
F:  4120975----T:  4151698 	 St: 0 Sz: 258048 	 Sm: 0 	 T: device_sync(20.744766)
F:  4154303----T:  4156908 	 St: 0 Sz: 4096 	 Sm: 0 	 T: device_sync(1.758947)
F:  4154303----T:  4215139 	 St: 0 Sz: 520192 	 Sm: 0 	 T: device_sync(41.077652)
F:  4217744----T:  4220349 	 St: 0 Sz: 4096 	 Sm: 0 	 T: device_sync(1.758947)
F:  4217744----T:  4338833 	 St: 0 Sz: 1044480 	 Sm: 0 	 T: device_sync(81.761650)
F:  4341438----T:  4344043 	 St: 0 Sz: 4096 	 Sm: 0 	 T: device_sync(1.758947)
F:  4341438----T:  4349678 	 St: 0 Sz: 61440 	 Sm: 0 	 T: device_sync(5.563808)
F:  4352283----T:  4354888 	 St: 0 Sz: 4096 	 Sm: 0 	 T: device_sync(1.758947)
F:  4352283----T:  4360523 	 St: 0 Sz: 61440 	 Sm: 0 	 T: device_sync(5.563808)
F:  4363128----T:  4365733 	 St: 0 Sz: 4096 	 Sm: 0 	 T: device_sync(1.758947)
F:  4363128----T:  4378823 	 St: 0 Sz: 126976 	 Sm: 0 	 T: device_sync(10.597569)
F:  4381428----T:  4384033 	 St: 0 Sz: 4096 	 Sm: 0 	 T: device_sync(1.758947)
F:  4381428----T:  4412151 	 St: 0 Sz: 258048 	 Sm: 0 	 T: device_sync(20.744766)
F:  4414756----T:  4417361 	 St: 0 Sz: 4096 	 Sm: 0 	 T: device_sync(1.758947)
F:  4414756----T:  4475592 	 St: 0 Sz: 520192 	 Sm: 0 	 T: device_sync(41.077652)
F:  4478197----T:  4480802 	 St: 0 Sz: 4096 	 Sm: 0 	 T: device_sync(1.758947)
F:  4478197----T:  4599286 	 St: 0 Sz: 1044480 	 Sm: 0 	 T: device_sync(81.761650)
F:  4601891----T:  4604496 	 St: 0 Sz: 4096 	 Sm: 0 	 T: device_sync(1.758947)
F:  4601891----T:  4610131 	 St: 0 Sz: 61440 	 Sm: 0 	 T: device_sync(5.563808)
F:  4612736----T:  4615341 	 St: 0 Sz: 4096 	 Sm: 0 	 T: device_sync(1.758947)
F:  4612736----T:  4620976 	 St: 0 Sz: 61440 	 Sm: 0 	 T: device_sync(5.563808)
F:  4623581----T:  4626186 	 St: 0 Sz: 4096 	 Sm: 0 	 T: device_sync(1.758947)
F:  4623581----T:  4639276 	 St: 0 Sz: 126976 	 Sm: 0 	 T: device_sync(10.597569)
F:  4641881----T:  4644486 	 St: 0 Sz: 4096 	 Sm: 0 	 T: device_sync(1.758947)
F:  4641881----T:  4672604 	 St: 0 Sz: 258048 	 Sm: 0 	 T: device_sync(20.744766)
F:  4675209----T:  4677814 	 St: 0 Sz: 4096 	 Sm: 0 	 T: device_sync(1.758947)
F:  4675209----T:  4736045 	 St: 0 Sz: 520192 	 Sm: 0 	 T: device_sync(41.077652)
F:  4738650----T:  4741255 	 St: 0 Sz: 4096 	 Sm: 0 	 T: device_sync(1.758947)
F:  4738650----T:  4859739 	 St: 0 Sz: 1044480 	 Sm: 0 	 T: device_sync(81.761650)
Tot_prefetch_time: 0(cycle), 0.000000(us)
Tot_kernel_exec_time: 2931932(cycle), 1979.697510(us)
Tot_kernel_exec_time_and_fault_time: 15727772(cycle), 10619.697266(us)
Tot_memcpy_h2d_time: 2055383(cycle), 1387.834595(us)
Tot_memcpy_d2h_time: 0(cycle), 0.000000(us)
Tot_memcpy_time: 2055383(cycle), 1387.834595(us)
Tot_devicesync_time: 1041812(cycle), 703.451721(us)
Tot_writeback_time: 0(cycle), 0.000000(us)
Tot_dma_time: 0(cycle), 0.000000(us)
Tot_memcpy_d2h_sync_wb_time: 1041812(cycle), 703.451721(us)
GPGPU-Sim: *** exit detected ***
