

        *** GPGPU-Sim Simulator Version 3.2.2  [build gpgpu-sim_git-commit-b59af3f95cf1bd6710f57ba8441bced1b556b409_modified_44] ***


GPGPU-Sim PTX: simulation mode 0 (can change with PTX_SIM_MODE_FUNC environment variable:
               1=functional simulation only, 0=detailed performance simulator)
GPGPU-Sim: Configuration options:

-network_mode                           1 # Interconnection network mode
-inter_config_file   config_fermi_islip.icnt # Interconnection network config file
-gpgpu_ptx_use_cuobjdump                    1 # Use cuobjdump to extract ptx and sass from binaries
-gpgpu_experimental_lib_support                    0 # Try to extract code from cuda libraries [Broken because of unknown cudaGetExportTable]
-gpgpu_ptx_convert_to_ptxplus                    0 # Convert SASS (native ISA) to ptxplus and run ptxplus
-gpgpu_ptx_force_max_capability                   20 # Force maximum compute capability
-gpgpu_ptx_inst_debug_to_file                    0 # Dump executed instructions' debug information to file
-gpgpu_ptx_inst_debug_file       inst_debug.txt # Executed instructions' debug output file
-gpgpu_ptx_inst_debug_thread_uid                    1 # Thread UID for executed instructions' debug output
-gpgpu_simd_model                       1 # 1 = post-dominator
-gpgpu_shader_core_pipeline              2048:32 # shader core pipeline config, i.e., {<nthread>:<warpsize>}
-gpgpu_tex_cache:l1  16:128:24,L:R:m:N:L,F:128:4,128:2 # per-shader L1 texture cache  (READ-ONLY) config  {<nsets>:<bsize>:<assoc>,<rep>:<wr>:<alloc>:<wr_alloc>,<mshr>:<N>:<merge>,<mq>:<rf>}
-gpgpu_const_cache:l1 128:64:2,L:R:f:N:L,A:2:64,4 # per-shader L1 constant memory cache  (READ-ONLY) config  {<nsets>:<bsize>:<assoc>,<rep>:<wr>:<alloc>:<wr_alloc>,<mshr>:<N>:<merge>,<mq>} 
-gpgpu_cache:il1     8:128:4,L:R:f:N:L,A:2:48,4 # shader L1 instruction cache config  {<nsets>:<bsize>:<assoc>,<rep>:<wr>:<alloc>:<wr_alloc>,<mshr>:<N>:<merge>,<mq>} 
-gpgpu_cache:dl1     64:128:6,L:L:m:N:H,A:128:8,8 # per-shader L1 data cache config  {<nsets>:<bsize>:<assoc>,<rep>:<wr>:<alloc>:<wr_alloc>,<mshr>:<N>:<merge>,<mq> | none}
-gpgpu_cache:dl1PrefL1                 none # per-shader L1 data cache config  {<nsets>:<bsize>:<assoc>,<rep>:<wr>:<alloc>:<wr_alloc>,<mshr>:<N>:<merge>,<mq> | none}
-gpgpu_cache:dl1PrefShared                 none # per-shader L1 data cache config  {<nsets>:<bsize>:<assoc>,<rep>:<wr>:<alloc>:<wr_alloc>,<mshr>:<N>:<merge>,<mq> | none}
-gmem_skip_L1D                          1 # global memory access skip L1D cache (implements -Xptxas -dlcm=cg, default=no skip)
-gpgpu_perfect_mem                      0 # enable perfect memory mode (no cache miss)
-n_regfile_gating_group                    4 # group of lanes that should be read/written together)
-gpgpu_clock_gated_reg_file                    0 # enable clock gated reg file for power calculations
-gpgpu_clock_gated_lanes                    0 # enable clock gated lanes for power calculations
-gpgpu_shader_registers                65536 # Number of registers per shader core. Limits number of concurrent CTAs. (default 8192)
-gpgpu_shader_cta                      32 # Maximum number of concurrent CTAs in shader (default 8)
-gpgpu_num_cta_barriers                   16 # Maximum number of named barriers per CTA (default 16)
-gpgpu_n_clusters                      28 # number of processing clusters
-gpgpu_n_cores_per_cluster                    1 # number of simd cores per cluster
-gpgpu_n_cluster_ejection_buffer_size                    8 # number of packets in ejection buffer
-gpgpu_n_ldst_response_buffer_size                    2 # number of response packets in ld/st unit ejection buffer
-gpgpu_shmem_size                   16384 # Size of shared memory per shader core (default 16kB)
-gpgpu_shmem_size                   98304 # Size of shared memory per shader core (default 16kB)
-gpgpu_shmem_size_PrefL1                16384 # Size of shared memory per shader core (default 16kB)
-gpgpu_shmem_size_PrefShared                16384 # Size of shared memory per shader core (default 16kB)
-gpgpu_shmem_num_banks                   32 # Number of banks in the shared memory in each shader core (default 16)
-gpgpu_shmem_limited_broadcast                    0 # Limit shared memory to do one broadcast per cycle (default on)
-gpgpu_shmem_warp_parts                    1 # Number of portions a warp is divided into for shared memory bank conflict check 
-gpgpu_warpdistro_shader                   -1 # Specify which shader core to collect the warp size distribution from
-gpgpu_warp_issue_shader                    0 # Specify which shader core to collect the warp issue distribution from
-gpgpu_local_mem_map                    1 # Mapping from local memory space address to simulated GPU physical address space (default = enabled)
-gpgpu_num_reg_banks                   32 # Number of register banks (default = 8)
-gpgpu_reg_bank_use_warp_id                    0 # Use warp ID in mapping registers to banks (default = off)
-gpgpu_operand_collector_num_units_sp                   20 # number of collector units (default = 4)
-gpgpu_operand_collector_num_units_sfu                    4 # number of collector units (default = 4)
-gpgpu_operand_collector_num_units_mem                    8 # number of collector units (default = 2)
-gpgpu_operand_collector_num_units_gen                    0 # number of collector units (default = 0)
-gpgpu_operand_collector_num_in_ports_sp                    4 # number of collector unit in ports (default = 1)
-gpgpu_operand_collector_num_in_ports_sfu                    1 # number of collector unit in ports (default = 1)
-gpgpu_operand_collector_num_in_ports_mem                    1 # number of collector unit in ports (default = 1)
-gpgpu_operand_collector_num_in_ports_gen                    0 # number of collector unit in ports (default = 0)
-gpgpu_operand_collector_num_out_ports_sp                    4 # number of collector unit in ports (default = 1)
-gpgpu_operand_collector_num_out_ports_sfu                    1 # number of collector unit in ports (default = 1)
-gpgpu_operand_collector_num_out_ports_mem                    1 # number of collector unit in ports (default = 1)
-gpgpu_operand_collector_num_out_ports_gen                    0 # number of collector unit in ports (default = 0)
-gpgpu_coalesce_arch                   13 # Coalescing arch (default = 13, anything else is off for now)
-gpgpu_num_sched_per_core                    2 # Number of warp schedulers per core
-gpgpu_max_insn_issue_per_warp                    2 # Max number of instructions that can be issued per warp in one cycle by scheduler
-gpgpu_simt_core_sim_order                    1 # Select the simulation order of cores in a cluster (0=Fix, 1=Round-Robin)
-gpgpu_pipeline_widths        4,1,1,4,1,1,6 # Pipeline widths ID_OC_SP,ID_OC_SFU,ID_OC_MEM,OC_EX_SP,OC_EX_SFU,OC_EX_MEM,EX_WB
-gpgpu_num_sp_units                     4 # Number of SP units (default=1)
-gpgpu_num_sfu_units                    1 # Number of SF units (default=1)
-gpgpu_num_mem_units                    1 # Number if ldst units (default=1) WARNING: not hooked up to anything
-gpgpu_scheduler                      gto # Scheduler configuration: < lrr | gto | two_level_active > If two_level_active:<num_active_warps>:<inner_prioritization>:<outer_prioritization>For complete list of prioritization values see shader.h enum scheduler_prioritization_typeDefault: gto
-gpgpu_concurrent_kernel_sm                    0 # Support concurrent kernels on a SM (default = disabled)
-tlb_size                            4096 # Number of tlb entries per SM.
-gpgpu_dram_scheduler                    1 # 0 = fifo, 1 = FR-FCFS (defaul)
-gpgpu_dram_partition_queues              8:8:8:8 # i2$:$2d:d2$:$2i
-l2_ideal                               0 # Use a ideal L2 cache that always hit
-gpgpu_cache:dl2     64:128:16,L:B:m:W:L,A:1024:1024,4:0,32 # unified banked L2 data cache config  {<nsets>:<bsize>:<assoc>,<rep>:<wr>:<alloc>:<wr_alloc>,<mshr>:<N>:<merge>,<mq>}
-gpgpu_cache:dl2_texture_only                    0 # L2 cache used for texture only
-gpgpu_n_mem                           11 # number of memory modules (e.g. memory controllers) in gpu
-gpgpu_n_sub_partition_per_mchannel                    2 # number of memory subpartition in each memory module
-gpgpu_n_mem_per_ctrlr                    1 # number of memory chips per memory controller
-gpgpu_memlatency_stat                   14 # track and display latency statistics 0x2 enables MC, 0x4 enables queue logs
-gpgpu_frfcfs_dram_sched_queue_size                   64 # 0 = unlimited (default); # entries per chip
-gpgpu_dram_return_queue_size                  116 # 0 = unlimited (default); # entries per chip
-gpgpu_dram_buswidth                    4 # default = 4 bytes (8 bytes per cycle at DDR)
-gpgpu_dram_burst_length                    8 # Burst length of each DRAM request (default = 4 data bus cycle)
-dram_data_command_freq_ratio                    4 # Frequency ratio between DRAM data bus and command bus (default = 2 times, i.e. DDR)
-gpgpu_dram_timing_opt nbk=16:CCD=2:RRD=6:RCD=12:RAS=28:RP=12:RC=40: CL=12:WL=4:CDLR=5:WR=12:nbkgrp=1:CCDL=0:RTPL=0 # DRAM timing parameters = {nbk:tCCD:tRRD:tRCD:tRAS:tRP:tRC:CL:WL:tCDLR:tWR:nbkgrp:tCCDL:tRTPL}
-rop_latency                          120 # ROP queue latency (default 85)
-dram_latency                         100 # DRAM latency (default 30)
-gpgpu_mem_addr_mapping dramid@8;00000000.00000000.00000000.00000000.0000RRRR.RRRRRRRR.RBBBCCCC.BCCSSSSS # mapping memory address to dram model {dramid@<start bit>;<memory address map>}
-gpgpu_mem_addr_test                    0 # run sweep test to check address mapping for aliased address
-gpgpu_mem_address_mask                    1 # 0 = old addressing mask, 1 = new addressing mask, 2 = new add. mask + flipped bank sel and chip sel bits
-gpuwattch_xml_file  gpuwattch_geforcegtx1080ti.xml # GPUWattch XML file
-power_simulation_enabled                    1 # Turn on power simulator (1=On, 0=Off)
-power_per_cycle_dump                    0 # Dump detailed power output each cycle
-power_trace_enabled                    0 # produce a file for the power trace (1=On, 0=Off)
-power_trace_zlevel                     6 # Compression level of the power trace output log (0=no comp, 9=highest)
-steady_power_levels_enabled                    0 # produce a file for the steady power levels (1=On, 0=Off)
-steady_state_definition                  8:4 # allowed deviation:number of samples
-gpgpu_max_cycle                        0 # terminates gpu simulation early (0 = no limit)
-gpgpu_max_insn                         0 # terminates gpu simulation early (0 = no limit)
-gpgpu_max_cta                          0 # terminates gpu simulation early (0 = no limit)
-gpgpu_runtime_stat                   500 # display runtime statistics such as dram utilization {<freq>:<flag>}
-liveness_message_freq                    1 # Minimum number of seconds between simulation liveness messages (0 = always print)
-gpgpu_flush_l1_cache                    0 # Flush L1 cache at the end of each kernel call
-gpgpu_flush_l2_cache                    0 # Flush L2 cache at the end of each kernel call
-gpgpu_deadlock_detect                    0 # Stop the simulation at deadlock (1=on (default), 0=off)
-gpgpu_ptx_instruction_classification                    0 # if enabled will classify ptx instruction types per kernel (Max 255 kernels now)
-gpgpu_ptx_sim_mode                     0 # Select between Performance (default) or Functional simulation (1)
-gpgpu_clock_domains 1481.0:2962.0:1481.0:2750.0 # Clock Domain Frequencies in MhZ {<Core Clock>:<ICNT Clock>:<L2 Clock>:<DRAM Clock>}
-gpgpu_max_concurrent_kernel                    8 # maximum kernels that can run concurrently on GPU
-gpgpu_cflog_interval                    0 # Interval between each snapshot in control flow logger
-visualizer_enabled                     0 # Turn on visualizer output (1=On, 0=Off)
-visualizer_outputfile                 NULL # Specifies the output log file for visualizer
-visualizer_zlevel                      6 # Compression level of the visualizer output log (0=no comp, 9=highest)
-trace_enabled                          0 # Turn on traces
-trace_components                    none # comma seperated list of traces to enable. Complete list found in trace_streams.tup. Default none
-trace_sampling_core                    0 # The core which is printed using CORE_DPRINTF. Default 0
-trace_sampling_memory_partition                   -1 # The memory partition which is printed using MEMPART_DPRINTF. Default -1 (i.e. all)
-gddr_size                            1GB # Size of GDDR in MB/GB.(GLOBAL_HEAP_START, GLOBAL_HEAP_START + gddr_size) would be used for unmanged memory, (GLOBAL_HEAP_START + gddr_size, GLOBAL_HEAP_START + gddr_size*2) would be used for managed memory. 
-page_table_walk_latency                  100 # Average page table walk latency (in core cycle).
-eviction_policy                      lru # Memory eviction policy: lru or random.
-percentage_of_free_page_buffer                    0 # Percentage of free page buffer to trigger the page eviction.
-page_size                            4KB # GDDR page size, only 4KB/2MB avaliable.
-pcie_bandwith                   16.0GB/s # PCI-e bandwith per direction, in GB/s.
-sim_prof_enable                        1 # Enable gpgpu-sim profiler
-hardware_prefetch                      0 # Enable gpgpu-sim hardware prefetcher
-page_fault_latency                 66645 # Average fault latency (in core cycle).
-enable_accurate_simulation                    0 # Enable page fault functional simulation.
-enable_ptx_file_line_stats                    1 # Turn on PTX source line statistic profiling. (1 = On)
-ptx_line_stats_filename gpgpu_inst_stats.txt # Output file for PTX source line statistics.
-gpgpu_kernel_launch_latency               222150 # Kernel launch latency in cycles. Default: 0
-gpgpu_cdp_enabled                      0 # Turn on CDP
-save_embedded_ptx                      0 # saves ptx files embedded in binary as <n>.ptx
-keep                                   0 # keep intermediate files created by GPGPU-Sim when interfacing with external programs
-gpgpu_ptx_save_converted_ptxplus                    0 # Saved converted ptxplus to a file
-ptx_opcode_latency_int         4,13,4,5,145 # Opcode latencies for integers <ADD,MAX,MUL,MAD,DIV>Default 1,1,19,25,145
-ptx_opcode_latency_fp          4,13,4,5,39 # Opcode latencies for single precision floating points <ADD,MAX,MUL,MAD,DIV>Default 1,1,1,1,30
-ptx_opcode_latency_dp         8,19,8,8,330 # Opcode latencies for double precision floating points <ADD,MAX,MUL,MAD,DIV>Default 8,8,8,8,335
-ptx_opcode_initiation_int            1,2,2,2,8 # Opcode initiation intervals for integers <ADD,MAX,MUL,MAD,DIV>Default 1,1,4,4,32
-ptx_opcode_initiation_fp            1,2,1,1,4 # Opcode initiation intervals for single precision floating points <ADD,MAX,MUL,MAD,DIV>Default 1,1,1,1,5
-ptx_opcode_initiation_dp          1,2,1,1,130 # Opcode initiation intervals for double precision floating points <ADD,MAX,MUL,MAD,DIV>Default 8,8,8,8,130
-cdp_latency         7200,8000,100,12000,1600 # CDP API latency <cudaStreamCreateWithFlags, cudaGetParameterBufferV2_init_perWarp, cudaGetParameterBufferV2_perKernel, cudaLaunchDeviceV2_init_perWarp, cudaLaunchDevicV2_perKernel>Default 7200,8000,100,12000,1600
DRAM Timing Options:
nbk                                    16 # number of banks
CCD                                     2 # column to column delay
RRD                                     6 # minimal delay between activation of rows in different banks
RCD                                    12 # row to column delay
RAS                                    28 # time needed to activate row
RP                                     12 # time needed to precharge (deactivate) row
RC                                     40 # row cycle time
CDLR                                    5 # switching from write to read (changes tWTR)
WR                                     12 # last data-in to row precharge
CL                                     12 # CAS latency
WL                                      4 # Write latency
nbkgrp                                  1 # number of bank groups
CCDL                                    0 # column to column delay between accesses to different bank groups
RTPL                                    0 # read to precharge delay between accesses to different bank groups
Total number of memory sub partition = 22
addr_dec_mask[CHIP]  = 0000000000000000 	high:64 low:0
addr_dec_mask[BK]    = 0000000000007080 	high:15 low:7
addr_dec_mask[ROW]   = 000000000fff8000 	high:28 low:15
addr_dec_mask[COL]   = 0000000000000f7f 	high:12 low:0
addr_dec_mask[BURST] = 000000000000001f 	high:5 low:0
sub_partition_id_mask = 0000000000000080
GPGPU-Sim uArch: clock freqs: 1481000000.000000:2962000000.000000:1481000000.000000:2750000000.000000
GPGPU-Sim uArch: clock periods: 0.00000000067521944632:0.00000000033760972316:0.00000000067521944632:0.00000000036363636364
*** Initializing Memory Statistics ***
GPGPU-Sim uArch: interconnect node map (shaderID+MemID to icntID)
GPGPU-Sim uArch: Memory nodes ID start from index: 28
GPGPU-Sim uArch:    0   1   2   3   4   5   6
GPGPU-Sim uArch:    7   8   9  10  11  12  13
GPGPU-Sim uArch:   14  15  16  17  18  19  20
GPGPU-Sim uArch:   21  22  23  24  25  26  27
GPGPU-Sim uArch:   28  29  30  31  32  33  34
GPGPU-Sim uArch:   35  36  37  38  39  40  41
GPGPU-Sim uArch:   42  43  44  45  46  47  48
GPGPU-Sim uArch:   49
GPGPU-Sim uArch: interconnect node reverse map (icntID to shaderID+MemID)
GPGPU-Sim uArch: Memory nodes start from ID: 28
GPGPU-Sim uArch:    0   1   2   3   4   5   6
GPGPU-Sim uArch:    7   8   9  10  11  12  13
GPGPU-Sim uArch:   14  15  16  17  18  19  20
GPGPU-Sim uArch:   21  22  23  24  25  26  27
GPGPU-Sim uArch:   28  29  30  31  32  33  34
GPGPU-Sim uArch:   35  36  37  38  39  40  41
GPGPU-Sim uArch:   42  43  44  45  46  47  48
GPGPU-Sim uArch:   49
e7a6bab4e280bee14ebf6da798ca7435  /home/gpuser/Documents/gpgpu-sim_UVM_new_backprop/benchmarks/Managed/backprop_without/backprop
GPGPU-Sim uArch: performance model initialization complete.
GPGPU-Sim PTX: __cudaRegisterFatBinary, fat_cubin_handle = 1, filename=default
self exe links to: /home/gpuser/Documents/gpgpu-sim_UVM_new_backprop/benchmarks/Managed/backprop_without/backprop
Running md5sum using "md5sum /home/gpuser/Documents/gpgpu-sim_UVM_new_backprop/benchmarks/Managed/backprop_without/backprop "
Parsing file _cuobjdump_complete_output_vzlKCc
######### cuobjdump parser ########
## Adding new section ELF
Adding arch: sm_20
Adding identifier: default
## Adding new section ELF
Adding arch: sm_20
Adding identifier: default
## Adding new section PTX
Adding ptx filename: _cuobjdump_1.ptx
Adding arch: sm_20
Adding identifier: default
Done parsing!!!
GPGPU-Sim PTX: __cudaRegisterFunction _Z24bpnn_adjust_weights_cudaPfiS_iS_S_ : hostFun 0x0x402d5b, fat_cubin_handle = 1
GPGPU-Sim PTX: allocating shared region for "_Z22bpnn_layerforward_CUDAPfS_S_S_ii$__cuda_local_var_17900_34_non_const_input_node" from 0x0 to 0x40 (shared memory space)
GPGPU-Sim PTX: allocating shared region for "_Z22bpnn_layerforward_CUDAPfS_S_S_ii$__cuda_local_var_17901_34_non_const_weight_matrix" from 0x80 to 0x480 (shared memory space)
GPGPU-Sim PTX: instruction assembly for function '_Z22bpnn_layerforward_CUDAPfS_S_S_ii'...   done.
GPGPU-Sim PTX: finding reconvergence points for '_Z22bpnn_layerforward_CUDAPfS_S_S_ii'...
GPGPU-Sim PTX: Finding dominators for '_Z22bpnn_layerforward_CUDAPfS_S_S_ii'...
GPGPU-Sim PTX: Finding immediate dominators for '_Z22bpnn_layerforward_CUDAPfS_S_S_ii'...
GPGPU-Sim PTX: Finding postdominators for '_Z22bpnn_layerforward_CUDAPfS_S_S_ii'...
GPGPU-Sim PTX: Finding immediate postdominators for '_Z22bpnn_layerforward_CUDAPfS_S_S_ii'...
GPGPU-Sim PTX: pre-decoding instructions for '_Z22bpnn_layerforward_CUDAPfS_S_S_ii'...
GPGPU-Sim PTX: reconvergence points for _Z22bpnn_layerforward_CUDAPfS_S_S_ii...
GPGPU-Sim PTX:  1 (potential) branch divergence @  PC=0x068 (_1.ptx:47) @%p2 bra BB0_2;
GPGPU-Sim PTX:    immediate post dominator      @  PC=0x0a0 (_1.ptx:57) cvta.to.global.u64 %rd3, %rd8;
GPGPU-Sim PTX:  2 (potential) branch divergence @  PC=0x168 (_1.ptx:82) @%p3 bra BB0_7;
GPGPU-Sim PTX:    immediate post dominator      @  PC=0x250 (_1.ptx:119) setp.eq.s32%p1, %r3, 0;
GPGPU-Sim PTX:  3 (potential) branch divergence @  PC=0x1c8 (_1.ptx:97) @%p4 bra BB0_6;
GPGPU-Sim PTX:    immediate post dominator      @  PC=0x228 (_1.ptx:112) bar.sync 0;
GPGPU-Sim PTX:  4 (potential) branch divergence @  PC=0x248 (_1.ptx:116) @%p5 bra BB0_4;
GPGPU-Sim PTX:    immediate post dominator      @  PC=0x250 (_1.ptx:119) setp.eq.s32%p1, %r3, 0;
GPGPU-Sim PTX:  5 (potential) branch divergence @  PC=0x270 (_1.ptx:123) @!%p1 bra BB0_9;
GPGPU-Sim PTX:    immediate post dominator      @  PC=0x2c8 (_1.ptx:138) ret;
GPGPU-Sim PTX:  6 (potential) branch divergence @  PC=0x278 (_1.ptx:124) bra.uni BB0_8;
GPGPU-Sim PTX:    immediate post dominator      @  PC=0x280 (_1.ptx:127) cvt.u32.u64%r20, %rd1;
GPGPU-Sim PTX: ... end of reconvergence points for _Z22bpnn_layerforward_CUDAPfS_S_S_ii
GPGPU-Sim PTX: ... done pre-decoding instructions for '_Z22bpnn_layerforward_CUDAPfS_S_S_ii'.
GPGPU-Sim PTX: instruction assembly for function '_Z24bpnn_adjust_weights_cudaPfiS_iS_S_'...   done.
GPGPU-Sim PTX: finding reconvergence points for '_Z24bpnn_adjust_weights_cudaPfiS_iS_S_'...
GPGPU-Sim PTX: Finding dominators for '_Z24bpnn_adjust_weights_cudaPfiS_iS_S_'...
GPGPU-Sim PTX: Finding immediate dominators for '_Z24bpnn_adjust_weights_cudaPfiS_iS_S_'...
GPGPU-Sim PTX: Finding postdominators for '_Z24bpnn_adjust_weights_cudaPfiS_iS_S_'...
GPGPU-Sim PTX: Finding immediate postdominators for '_Z24bpnn_adjust_weights_cudaPfiS_iS_S_'...
GPGPU-Sim PTX: pre-decoding instructions for '_Z24bpnn_adjust_weights_cudaPfiS_iS_S_'...
GPGPU-Sim PTX: reconvergence points for _Z24bpnn_adjust_weights_cudaPfiS_iS_S_...
GPGPU-Sim PTX:  1 (potential) branch divergence @  PC=0x470 (_1.ptx:210) @%p1 bra BB1_2;
GPGPU-Sim PTX:    immediate post dominator      @  PC=0x530 (_1.ptx:237) ret;
GPGPU-Sim PTX: ... end of reconvergence points for _Z24bpnn_adjust_weights_cudaPfiS_iS_S_
GPGPU-Sim PTX: ... done pre-decoding instructions for '_Z24bpnn_adjust_weights_cudaPfiS_iS_S_'.
GPGPU-Sim PTX: finished parsing EMBEDDED .ptx file _1.ptx
Adding _cuobjdump_1.ptx with cubin handle 1
GPGPU-Sim PTX: extracting embedded .ptx to temporary file "_ptx_TtDpaQ"
Running: cat _ptx_TtDpaQ | sed 's/.version 1.5/.version 1.4/' | sed 's/, texmode_independent//' | sed 's/\(\.extern \.const\[1\] .b8 \w\+\)\[\]/\1\[1\]/' | sed 's/const\[.\]/const\[0\]/g' > _ptx2_PtP8Ht
GPGPU-Sim PTX: generating ptxinfo using "$CUDA_INSTALL_PATH/bin/ptxas --gpu-name=sm_20 -v _ptx2_PtP8Ht --output-file  /dev/null 2> _ptx_TtDpaQinfo"
GPGPU-Sim PTX: Kernel '_Z24bpnn_adjust_weights_cudaPfiS_iS_S_' : regs=22, lmem=0, smem=0, cmem=80
GPGPU-Sim PTX: Kernel '_Z22bpnn_layerforward_CUDAPfS_S_S_ii' : regs=11, lmem=0, smem=1088, cmem=72
GPGPU-Sim PTX: removing ptxinfo using "rm -f _ptx_TtDpaQ _ptx2_PtP8Ht _ptx_TtDpaQinfo"
GPGPU-Sim PTX: loading globals with explicit initializers... 
GPGPU-Sim PTX: finished loading globals (0 bytes total).
GPGPU-Sim PTX: loading constants with explicit initializers...  done.
GPGPU-Sim PTX: __cudaRegisterFunction _Z22bpnn_layerforward_CUDAPfS_S_S_ii : hostFun 0x0x402c0a, fat_cubin_handle = 1
Random number generator seed: 7
cudaMallocManaged called
cudaMallocManaged called
cudaMallocManaged called
cudaMallocManaged called
cudaMallocManaged called
cudaMallocManaged called
cudaMallocManaged called
cudaMallocManaged called
cudaMallocManaged called
cudaMallocManaged called
cudaMallocManaged called
Input layer size : 18000
Starting training kernel
Performing GPU computation

GPGPU-Sim PTX: cudaLaunch for 0x0x402c0a (mode=performance simulation) on stream 0
GPGPU-Sim PTX: pushing kernel '_Z22bpnn_layerforward_CUDAPfS_S_S_ii' to stream 0, gridDim= (1,1125,1) blockDim = (16,16,1) 
GPGPU-Sim uArch: Shader 1 bind to kernel 1 '_Z22bpnn_layerforward_CUDAPfS_S_S_ii'
GPGPU-Sim uArch: CTA/core = 8, limited by: threads
GPGPU-Sim uArch: Shader 2 bind to kernel 1 '_Z22bpnn_layerforward_CUDAPfS_S_S_ii'
GPGPU-Sim uArch: Shader 3 bind to kernel 1 '_Z22bpnn_layerforward_CUDAPfS_S_S_ii'
GPGPU-Sim uArch: Shader 4 bind to kernel 1 '_Z22bpnn_layerforward_CUDAPfS_S_S_ii'
GPGPU-Sim uArch: Shader 5 bind to kernel 1 '_Z22bpnn_layerforward_CUDAPfS_S_S_ii'
GPGPU-Sim uArch: Shader 6 bind to kernel 1 '_Z22bpnn_layerforward_CUDAPfS_S_S_ii'
GPGPU-Sim uArch: Shader 7 bind to kernel 1 '_Z22bpnn_layerforward_CUDAPfS_S_S_ii'
GPGPU-Sim uArch: Shader 8 bind to kernel 1 '_Z22bpnn_layerforward_CUDAPfS_S_S_ii'
GPGPU-Sim uArch: Shader 9 bind to kernel 1 '_Z22bpnn_layerforward_CUDAPfS_S_S_ii'
GPGPU-Sim uArch: Shader 10 bind to kernel 1 '_Z22bpnn_layerforward_CUDAPfS_S_S_ii'
GPGPU-Sim uArch: Shader 11 bind to kernel 1 '_Z22bpnn_layerforward_CUDAPfS_S_S_ii'
GPGPU-Sim uArch: Shader 12 bind to kernel 1 '_Z22bpnn_layerforward_CUDAPfS_S_S_ii'
GPGPU-Sim uArch: Shader 13 bind to kernel 1 '_Z22bpnn_layerforward_CUDAPfS_S_S_ii'
GPGPU-Sim uArch: Shader 14 bind to kernel 1 '_Z22bpnn_layerforward_CUDAPfS_S_S_ii'
GPGPU-Sim uArch: Shader 15 bind to kernel 1 '_Z22bpnn_layerforward_CUDAPfS_S_S_ii'
GPGPU-Sim uArch: Shader 16 bind to kernel 1 '_Z22bpnn_layerforward_CUDAPfS_S_S_ii'
GPGPU-Sim uArch: Shader 17 bind to kernel 1 '_Z22bpnn_layerforward_CUDAPfS_S_S_ii'
GPGPU-Sim uArch: Shader 18 bind to kernel 1 '_Z22bpnn_layerforward_CUDAPfS_S_S_ii'
GPGPU-Sim uArch: Shader 19 bind to kernel 1 '_Z22bpnn_layerforward_CUDAPfS_S_S_ii'
GPGPU-Sim uArch: Shader 20 bind to kernel 1 '_Z22bpnn_layerforward_CUDAPfS_S_S_ii'
GPGPU-Sim uArch: Shader 21 bind to kernel 1 '_Z22bpnn_layerforward_CUDAPfS_S_S_ii'
GPGPU-Sim uArch: Shader 22 bind to kernel 1 '_Z22bpnn_layerforward_CUDAPfS_S_S_ii'
GPGPU-Sim uArch: Shader 23 bind to kernel 1 '_Z22bpnn_layerforward_CUDAPfS_S_S_ii'
GPGPU-Sim uArch: Shader 24 bind to kernel 1 '_Z22bpnn_layerforward_CUDAPfS_S_S_ii'
GPGPU-Sim uArch: Shader 25 bind to kernel 1 '_Z22bpnn_layerforward_CUDAPfS_S_S_ii'
GPGPU-Sim uArch: Shader 26 bind to kernel 1 '_Z22bpnn_layerforward_CUDAPfS_S_S_ii'
GPGPU-Sim uArch: Shader 27 bind to kernel 1 '_Z22bpnn_layerforward_CUDAPfS_S_S_ii'
GPGPU-Sim uArch: Shader 0 bind to kernel 1 '_Z22bpnn_layerforward_CUDAPfS_S_S_ii'
Destroy streams for kernel 1: size 0
kernel_name = _Z22bpnn_layerforward_CUDAPfS_S_S_ii 
kernel_launch_uid = 1 
gpu_sim_cycle = 876485
gpu_sim_insn = 30888000
gpu_ipc =      35.2408
gpu_tot_sim_cycle = 1098635
gpu_tot_sim_insn = 30888000
gpu_tot_ipc =      28.1149
gpu_tot_issued_cta = 1125
max_total_param_size = 0
gpu_stall_dramfull = 0
gpu_stall_icnt2sh    = 11379
partiton_reqs_in_parallel = 19282670
partiton_reqs_in_parallel_total    = 0
partiton_level_parallism =      22.0000
partiton_level_parallism_total  =      17.5515
partiton_reqs_in_parallel_util = 19282670
partiton_reqs_in_parallel_util_total    = 0
gpu_sim_cycle_parition_util = 876485
gpu_tot_sim_cycle_parition_util    = 0
partiton_level_parallism_util =      22.0000
partiton_level_parallism_util_total  =      22.0000
partiton_replys_in_parallel = 54758
partiton_replys_in_parallel_total    = 0
L2_BW  =       5.9216 GB/Sec
L2_BW_total  =       4.7242 GB/Sec
gpu_total_sim_rate=8718

========= Core cache stats =========
L1I_cache:
	L1I_total_cache_accesses = 642375
	L1I_total_cache_misses = 3249
	L1I_total_cache_miss_rate = 0.0051
	L1I_total_cache_pending_hits = 0
	L1I_total_cache_reservation_fails = 6846
L1D_cache:
	L1D_cache_core[0]: Access = 0, Miss = 0, Miss_rate = -nan, Pending_hits = 0, Reservation_fails = 0
	L1D_cache_core[1]: Access = 0, Miss = 0, Miss_rate = -nan, Pending_hits = 0, Reservation_fails = 0
	L1D_cache_core[2]: Access = 0, Miss = 0, Miss_rate = -nan, Pending_hits = 0, Reservation_fails = 0
	L1D_cache_core[3]: Access = 0, Miss = 0, Miss_rate = -nan, Pending_hits = 0, Reservation_fails = 0
	L1D_cache_core[4]: Access = 0, Miss = 0, Miss_rate = -nan, Pending_hits = 0, Reservation_fails = 0
	L1D_cache_core[5]: Access = 0, Miss = 0, Miss_rate = -nan, Pending_hits = 0, Reservation_fails = 0
	L1D_cache_core[6]: Access = 0, Miss = 0, Miss_rate = -nan, Pending_hits = 0, Reservation_fails = 0
	L1D_cache_core[7]: Access = 0, Miss = 0, Miss_rate = -nan, Pending_hits = 0, Reservation_fails = 0
	L1D_cache_core[8]: Access = 0, Miss = 0, Miss_rate = -nan, Pending_hits = 0, Reservation_fails = 0
	L1D_cache_core[9]: Access = 0, Miss = 0, Miss_rate = -nan, Pending_hits = 0, Reservation_fails = 0
	L1D_cache_core[10]: Access = 0, Miss = 0, Miss_rate = -nan, Pending_hits = 0, Reservation_fails = 0
	L1D_cache_core[11]: Access = 0, Miss = 0, Miss_rate = -nan, Pending_hits = 0, Reservation_fails = 0
	L1D_cache_core[12]: Access = 0, Miss = 0, Miss_rate = -nan, Pending_hits = 0, Reservation_fails = 0
	L1D_cache_core[13]: Access = 0, Miss = 0, Miss_rate = -nan, Pending_hits = 0, Reservation_fails = 0
	L1D_cache_core[14]: Access = 0, Miss = 0, Miss_rate = -nan, Pending_hits = 0, Reservation_fails = 0
	L1D_cache_core[15]: Access = 0, Miss = 0, Miss_rate = -nan, Pending_hits = 0, Reservation_fails = 0
	L1D_cache_core[16]: Access = 0, Miss = 0, Miss_rate = -nan, Pending_hits = 0, Reservation_fails = 0
	L1D_cache_core[17]: Access = 0, Miss = 0, Miss_rate = -nan, Pending_hits = 0, Reservation_fails = 0
	L1D_cache_core[18]: Access = 0, Miss = 0, Miss_rate = -nan, Pending_hits = 0, Reservation_fails = 0
	L1D_cache_core[19]: Access = 0, Miss = 0, Miss_rate = -nan, Pending_hits = 0, Reservation_fails = 0
	L1D_cache_core[20]: Access = 0, Miss = 0, Miss_rate = -nan, Pending_hits = 0, Reservation_fails = 0
	L1D_cache_core[21]: Access = 0, Miss = 0, Miss_rate = -nan, Pending_hits = 0, Reservation_fails = 0
	L1D_cache_core[22]: Access = 0, Miss = 0, Miss_rate = -nan, Pending_hits = 0, Reservation_fails = 0
	L1D_cache_core[23]: Access = 0, Miss = 0, Miss_rate = -nan, Pending_hits = 0, Reservation_fails = 0
	L1D_cache_core[24]: Access = 0, Miss = 0, Miss_rate = -nan, Pending_hits = 0, Reservation_fails = 0
	L1D_cache_core[25]: Access = 0, Miss = 0, Miss_rate = -nan, Pending_hits = 0, Reservation_fails = 0
	L1D_cache_core[26]: Access = 0, Miss = 0, Miss_rate = -nan, Pending_hits = 0, Reservation_fails = 0
	L1D_cache_core[27]: Access = 0, Miss = 0, Miss_rate = -nan, Pending_hits = 0, Reservation_fails = 0
	L1D_total_cache_accesses = 0
	L1D_total_cache_misses = 0
	L1D_total_cache_pending_hits = 0
	L1D_total_cache_reservation_fails = 0
	L1D_cache_data_port_util = 0.000
	L1D_cache_fill_port_util = 0.000
L1C_cache:
	L1C_total_cache_accesses = 36000
	L1C_total_cache_misses = 1792
	L1C_total_cache_miss_rate = 0.0498
	L1C_total_cache_pending_hits = 0
	L1C_total_cache_reservation_fails = 4886
L1T_cache:
	L1T_total_cache_accesses = 0
	L1T_total_cache_misses = 0
	L1T_total_cache_pending_hits = 0
	L1T_total_cache_reservation_fails = 0

Total_core_cache_stats:
	Total_core_cache_stats_breakdown[GLOBAL_ACC_R][HIT] = 0
	Total_core_cache_stats_breakdown[GLOBAL_ACC_R][HIT_RESERVED] = 0
	Total_core_cache_stats_breakdown[GLOBAL_ACC_R][MISS] = 0
	Total_core_cache_stats_breakdown[GLOBAL_ACC_R][RESERVATION_FAIL] = 0
	Total_core_cache_stats_breakdown[LOCAL_ACC_R][HIT] = 0
	Total_core_cache_stats_breakdown[LOCAL_ACC_R][HIT_RESERVED] = 0
	Total_core_cache_stats_breakdown[LOCAL_ACC_R][MISS] = 0
	Total_core_cache_stats_breakdown[LOCAL_ACC_R][RESERVATION_FAIL] = 0
	Total_core_cache_stats_breakdown[CONST_ACC_R][HIT] = 34208
	Total_core_cache_stats_breakdown[CONST_ACC_R][HIT_RESERVED] = 0
	Total_core_cache_stats_breakdown[CONST_ACC_R][MISS] = 1792
	Total_core_cache_stats_breakdown[CONST_ACC_R][RESERVATION_FAIL] = 4886
	Total_core_cache_stats_breakdown[TEXTURE_ACC_R][HIT] = 0
	Total_core_cache_stats_breakdown[TEXTURE_ACC_R][HIT_RESERVED] = 0
	Total_core_cache_stats_breakdown[TEXTURE_ACC_R][MISS] = 0
	Total_core_cache_stats_breakdown[TEXTURE_ACC_R][RESERVATION_FAIL] = 0
	Total_core_cache_stats_breakdown[GLOBAL_ACC_W][HIT] = 0
	Total_core_cache_stats_breakdown[GLOBAL_ACC_W][HIT_RESERVED] = 0
	Total_core_cache_stats_breakdown[GLOBAL_ACC_W][MISS] = 0
	Total_core_cache_stats_breakdown[GLOBAL_ACC_W][RESERVATION_FAIL] = 0
	Total_core_cache_stats_breakdown[LOCAL_ACC_W][HIT] = 0
	Total_core_cache_stats_breakdown[LOCAL_ACC_W][HIT_RESERVED] = 0
	Total_core_cache_stats_breakdown[LOCAL_ACC_W][MISS] = 0
	Total_core_cache_stats_breakdown[LOCAL_ACC_W][RESERVATION_FAIL] = 0
	Total_core_cache_stats_breakdown[L1_WRBK_ACC][HIT] = 0
	Total_core_cache_stats_breakdown[L1_WRBK_ACC][HIT_RESERVED] = 0
	Total_core_cache_stats_breakdown[L1_WRBK_ACC][MISS] = 0
	Total_core_cache_stats_breakdown[L1_WRBK_ACC][RESERVATION_FAIL] = 0
	Total_core_cache_stats_breakdown[L2_WRBK_ACC][HIT] = 0
	Total_core_cache_stats_breakdown[L2_WRBK_ACC][HIT_RESERVED] = 0
	Total_core_cache_stats_breakdown[L2_WRBK_ACC][MISS] = 0
	Total_core_cache_stats_breakdown[L2_WRBK_ACC][RESERVATION_FAIL] = 0
	Total_core_cache_stats_breakdown[INST_ACC_R][HIT] = 639126
	Total_core_cache_stats_breakdown[INST_ACC_R][HIT_RESERVED] = 0
	Total_core_cache_stats_breakdown[INST_ACC_R][MISS] = 3249
	Total_core_cache_stats_breakdown[INST_ACC_R][RESERVATION_FAIL] = 6846
	Total_core_cache_stats_breakdown[L1_WR_ALLOC_R][HIT] = 0
	Total_core_cache_stats_breakdown[L1_WR_ALLOC_R][HIT_RESERVED] = 0
	Total_core_cache_stats_breakdown[L1_WR_ALLOC_R][MISS] = 0
	Total_core_cache_stats_breakdown[L1_WR_ALLOC_R][RESERVATION_FAIL] = 0
	Total_core_cache_stats_breakdown[L2_WR_ALLOC_R][HIT] = 0
	Total_core_cache_stats_breakdown[L2_WR_ALLOC_R][HIT_RESERVED] = 0
	Total_core_cache_stats_breakdown[L2_WR_ALLOC_R][MISS] = 0
	Total_core_cache_stats_breakdown[L2_WR_ALLOC_R][RESERVATION_FAIL] = 0
	Total_core_cache_stats_breakdown[CONST_ACC_R][TOTAL_ACCESS] = 36000
	Total_core_cache_stats_breakdown[INST_ACC_R][TOTAL_ACCESS] = 642375
Shader 0 warp_id issue ditsribution:
warp_id:
0, 1, 2, 3, 4, 5, 6, 7, 8, 9, 10, 11, 12, 13, 14, 15, 16, 17, 18, 19, 20, 21, 22, 23, 24, 25, 26, 27, 28, 29, 30, 31, 32, 33, 34, 35, 36, 37, 38, 39, 40, 41, 42, 43, 44, 45, 46, 47, 48, 49, 50, 51, 52, 53, 54, 55, 56, 57, 58, 59, 60, 61, 62, 63, 
distro:
1075, 858, 925, 858, 1011, 860, 932, 865, 895, 714, 769, 714, 841, 715, 777, 722, 894, 712, 769, 715, 840, 715, 776, 717, 895, 715, 769, 716, 842, 715, 777, 719, 895, 713, 770, 713, 844, 716, 777, 722, 894, 711, 769, 716, 842, 718, 777, 721, 895, 712, 770, 714, 843, 717, 777, 721, 715, 570, 615, 572, 675, 572, 620, 578, 
gpgpu_n_tot_thrd_icount = 39060000
gpgpu_n_tot_w_icount = 1220625
gpgpu_n_stall_shd_mem = 45444
gpgpu_n_mem_read_local = 0
gpgpu_n_mem_write_local = 0
gpgpu_n_mem_read_global = 27562
gpgpu_n_mem_write_global = 27000
gpgpu_n_mem_texture = 0
gpgpu_n_mem_const = 28
gpgpu_n_load_insn  = 306000
gpgpu_n_store_insn = 306000
gpgpu_n_shmem_insn = 2286000
gpgpu_n_tex_insn = 0
gpgpu_n_const_mem_insn = 0
gpgpu_n_param_mem_insn = 1152000
gpgpu_n_shmem_bkconflict = 0
gpgpu_n_cache_bkconflict = 0
gpgpu_n_intrawarp_mshr_merge = 0
gpgpu_n_cmem_portconflict = 4886
gpgpu_stall_shd_mem[c_mem][bk_conf] = 4886
gpgpu_stall_shd_mem[c_mem][mshr_rc] = 0
gpgpu_stall_shd_mem[c_mem][icnt_rc] = 0
gpgpu_stall_shd_mem[c_mem][data_port_stall] = 0
gpgpu_stall_shd_mem[t_mem][mshr_rc] = 0
gpgpu_stall_shd_mem[t_mem][icnt_rc] = 0
gpgpu_stall_shd_mem[t_mem][data_port_stall] = 0
gpgpu_stall_shd_mem[s_mem][bk_conf] = 0
gpgpu_stall_shd_mem[gl_mem][bk_conf] = 0
gpgpu_stall_shd_mem[gl_mem][coal_stall] = 35319
gpgpu_stall_shd_mem[gl_mem][data_port_stall] = 0
gpgpu_stall_shd_mem[g_mem_ld][mshr_rc] = 0
gpgpu_stall_shd_mem[g_mem_ld][icnt_rc] = 5239
gpgpu_stall_shd_mem[g_mem_ld][wb_icnt_rc] = 0
gpgpu_stall_shd_mem[g_mem_ld][wb_rsrv_fail] = 0
gpgpu_stall_shd_mem[g_mem_st][mshr_rc] = 0
gpgpu_stall_shd_mem[g_mem_st][icnt_rc] = 0
gpgpu_stall_shd_mem[g_mem_st][wb_icnt_rc] = 0
gpgpu_stall_shd_mem[g_mem_st][wb_rsrv_fail] = 0
gpgpu_stall_shd_mem[l_mem_ld][mshr_rc] = 0
gpgpu_stall_shd_mem[l_mem_ld][icnt_rc] = 0
gpgpu_stall_shd_mem[l_mem_ld][wb_icnt_rc] = 0
gpgpu_stall_shd_mem[l_mem_ld][wb_rsrv_fail] = 0
gpgpu_stall_shd_mem[l_mem_st][mshr_rc] = 0
gpgpu_stall_shd_mem[l_mem_st][icnt_rc] = 0
gpgpu_stall_shd_mem[l_mem_ld][wb_icnt_rc] = 0
gpgpu_stall_shd_mem[l_mem_ld][wb_rsrv_fail] = 0
gpu_reg_bank_conflict_stalls = 0
Warp Occupancy Distribution:
Stall:58477	W0_Idle:3054818	W0_Scoreboard:44854302	W1:0	W2:144000	W3:0	W4:0	W5:0	W6:0	W7:0	W8:0	W9:0	W10:0	W11:0	W12:0	W13:0	W14:0	W15:0	W16:185625	W17:0	W18:0	W19:0	W20:0	W21:0	W22:0	W23:0	W24:0	W25:0	W26:0	W27:0	W28:0	W29:0	W30:0	W31:0	W32:891000
traffic_breakdown_coretomem[CONST_ACC_R] = 224 {8:28,}
traffic_breakdown_coretomem[GLOBAL_ACC_R] = 220496 {8:27562,}
traffic_breakdown_coretomem[GLOBAL_ACC_W] = 2087968 {40:13501,72:4499,136:9000,}
traffic_breakdown_coretomem[INST_ACC_R] = 1344 {8:168,}
traffic_breakdown_memtocore[CONST_ACC_R] = 2016 {72:28,}
traffic_breakdown_memtocore[GLOBAL_ACC_R] = 2200496 {40:12375,72:5624,136:9563,}
traffic_breakdown_memtocore[GLOBAL_ACC_W] = 216000 {8:27000,}
traffic_breakdown_memtocore[INST_ACC_R] = 22848 {136:168,}
maxmrqlatency = 82 
maxdqlatency = 0 
maxmflatency = 158811 
averagemflatency = 40171 
max_icnt2mem_latency = 158551 
max_icnt2sh_latency = 1098634 
mrq_lat_table:9429 	533 	768 	1977 	3260 	3037 	495 	0 	0 	0 	0 	0 	0 	0 	0 	0 	0 	0 	0 	0 	0 	0 	0 	0 	0 	0 	0 	0 	0 	0 	0 	0 	
dq_lat_table:0 	0 	0 	0 	0 	0 	0 	0 	0 	0 	0 	0 	0 	0 	0 	0 	0 	0 	0 	0 	0 	0 	0 	0 	0 	0 	0 	0 	0 	0 	0 	0 	
mf_lat_table:0 	0 	0 	0 	0 	0 	0 	19803 	769 	0 	32 	551 	1957 	1736 	8025 	7180 	10295 	4242 	0 	0 	0 	0 	0 	0 	0 	0 	0 	0 	0 	0 	0 	0 	
icnt2mem_lat_table:0 	0 	4199 	15876 	53 	0 	612 	0 	0 	0 	32 	574 	1934 	1736 	8153 	7052 	10373 	4164 	0 	0 	0 	0 	0 	0 	
icnt2sh_lat_table:0 	0 	7474 	10474 	9037 	591 	14 	0 	0 	0 	0 	0 	0 	0 	0 	0 	0 	528 	7728 	16832 	1912 	0 	0 	0 	
mf_lat_pw_table:0 	0 	0 	0 	0 	0 	0 	364 	11 	0 	0 	1 	3 	11 	57 	99 	131 	62 	0 	0 	0 	0 	0 	0 	0 	0 	0 	0 	0 	0 	0 	0 	
maximum concurrent accesses to same row:
dram[0]:        16        16        94       102        85        85        16        16        16        16        16        16        16        16        16        16 
dram[1]:        16        16        94       102        85        85        16        16        16        16        16        16        16        16        16        16 
dram[2]:        16        16       102       102       102       102        16        16        16        16        16        16        16        16        16        16 
dram[3]:        16        16       102       102        85        85        16        16        16        16        16        16        16        16        16        16 
dram[4]:        16        16       102       102        85        85        16        16        16        16        16        16        16        16        16        16 
dram[5]:        16        16       102       102       102       102        16        16        16        16        16        16        16        16        16        16 
dram[6]:        16        16       102       102        94       102        16        16        16        16        16        16        16        16        16        16 
dram[7]:        17        17       102       102        94        99        16        16        16        16        16        16        16        16        16        16 
dram[8]:        17        17       102        93       102       102        16        16        16        16        16        16        16        16        16        16 
dram[9]:        17        17       102       102        94       102        16        16        16        16        16        16        16        16        16        16 
dram[10]:        17        17        94       102        85        85        16        16        16        16        16        16        16        16        16        16 
maximum service time to same row:
dram[0]:    265718    265710    208404    208402    257894    257895    278734    278736    268318    268317    255287    255287    208404    208405    247478    247474 
dram[1]:    265710    265711    208401    208407    257895    257892    278735    278731    268319    268319    255287    255288    208400    208400    247475    247475 
dram[2]:    265712    265715    208398    208397    257892    257894    278732    278731    268309    268316    255288    255276    208403    208400    247475    247475 
dram[3]:    265716    265717    208400    208399    257895    257892    278737    278734    268317    268313    255291    255291    208405    208407    247475    247480 
dram[4]:    265718    265722    208403    208402    257901    257894    278736    278736    268316    268317    255287    255288    208407    208409    247467    247461 
dram[5]:    265713    265713    208402    208404    257894    257894    278734    278740    268312    268316    255295    255295    208399    208401    247475    247476 
dram[6]:    265714    265714    208400    208400    257892    257913    278724    278724    268314    268315    255296    255289    208402    208403    247477    247477 
dram[7]:    265714    265725    208403    208396    257887    257892    278736    278737    268315    268316    255290    255290    208399    208399    247467    247475 
dram[8]:    265710    265711    208396    208394    257926    264289    278739    278739    268315    268315    255292    255294    208401    208401    247476    247475 
dram[9]:    265712    265714    208394    208388    272079    272212    278740    278739    268314    268321    255295    255301    208392    208394    247481    247481 
dram[10]:    265714    265720    208403    208403    269497    269500    278725    278726    268308    268302    255300    255301    208394    208396    247475    247474 
average row accesses per activate:
dram[0]: 16.250000 16.000000 32.000000 33.500000 31.428572 32.571430 16.000000 16.000000 16.000000 16.000000 12.500000 12.500000 10.666667  8.000000  9.000000  7.000000 
dram[1]: 16.000000 16.000000 32.000000 33.599998 25.333334 24.444445 16.000000 16.000000 16.000000 16.000000 12.750000 12.750000  8.000000  8.000000  7.000000  7.000000 
dram[2]: 16.000000 16.000000 32.799999 33.599998 31.428572 29.000000 16.000000 16.000000 16.000000 16.000000 12.750000 12.750000  8.000000  8.000000  7.111111  7.111111 
dram[3]: 16.000000 16.000000 32.799999 32.799999 23.444445 23.444445 16.000000 16.000000 16.000000 16.000000 12.750000 12.750000  8.000000  8.000000  7.111111  7.111111 
dram[4]: 16.000000 16.000000 33.599998 32.799999 23.444445 22.555555 16.000000 16.000000 16.000000 16.000000 12.750000 12.750000  8.000000 10.666667  8.125000  8.125000 
dram[5]: 16.000000 16.000000 33.599998 32.799999 30.142857 30.142857 16.000000 16.000000 16.000000 16.000000 12.750000 12.750000 10.666667 10.666667  8.125000  7.222222 
dram[6]: 16.000000 16.000000 33.599998 33.599998 29.000000 30.142857 16.000000 16.000000 16.000000 16.000000 12.750000 12.750000 10.666667 10.666667  7.222222  7.222222 
dram[7]: 16.200001 16.200001 33.599998 33.599998 29.000000 29.714285 16.000000 16.000000 16.000000 16.000000 12.750000 12.750000 10.666667 10.666667  9.142858  9.000000 
dram[8]: 16.200001 16.200001 33.599998 32.700001 29.000000 30.142857 16.000000 16.000000 16.000000 16.000000 12.750000 12.750000 10.666667 10.666667  9.000000  9.000000 
dram[9]: 16.200001 16.200001 32.799999 33.599998 27.857143 29.000000 16.000000 16.000000 16.000000 16.000000 12.750000 12.750000 10.666667 10.666667  9.000000  9.000000 
dram[10]: 16.200001 16.200001 32.799999 33.500000 28.857143 28.857143 16.000000 16.000000 16.000000 16.000000 12.750000 12.750000 10.666667 10.666667  9.000000  9.000000 
average row locality = 19499/1027 = 18.986368
number of total memory accesses made:
dram[0]:         0         0         0         0         0         0         0         0         0         0         0         0         0         0         0         0 
dram[1]:         0         0         0         0         0         0         0         0         0         0         0         0         0         0         0         0 
dram[2]:         0         0         0         0         0         0         0         0         0         0         0         0         0         0         0         0 
dram[3]:         0         0         0         0         0         0         0         0         0         0         0         0         0         0         0         0 
dram[4]:         0         0         0         0         0         0         0         0         0         0         0         0         0         0         0         0 
dram[5]:         0         0         0         0         0         0         0         0         0         0         0         0         0         0         0         0 
dram[6]:         0         0         0         0         0         0         0         0         0         0         0         0         0         0         0         0 
dram[7]:         0         0         0         0         0         0         0         0         0         0         0         0         0         0         0         0 
dram[8]:         0         0         0         0         0         0         0         0         0         0         0         0         0         0         0         0 
dram[9]:         0         0         0         0         0         0         0         0         0         0         0         0         0         0         0         0 
dram[10]:         0         0         0         0         0         0         0         0         0         0         0         0         0         0         0         0 
total accesses: 0
min_bank_accesses = 0!
min_chip_accesses = 0!
number of total read accesses:
dram[0]:        65        64        80        80        68        68        48        48        48        48        50        50        64        64        63        63 
dram[1]:        64        64        80        80        68        68        48        48        48        48        51        51        64        64        63        63 
dram[2]:        64        64        80        80        68        67        48        48        48        48        51        51        64        64        64        64 
dram[3]:        64        64        80        80        67        67        48        48        48        48        51        51        64        64        64        64 
dram[4]:        64        64        80        80        67        67        48        48        48        48        51        51        64        64        65        65 
dram[5]:        64        64        80        80        67        67        48        48        48        48        51        51        64        64        65        65 
dram[6]:        64        64        80        80        67        67        48        48        48        48        51        51        64        64        65        65 
dram[7]:        65        65        80        80        67        67        48        48        48        48        51        51        64        64        64        63 
dram[8]:        65        65        80        80        67        67        48        48        48        48        51        51        64        64        63        63 
dram[9]:        65        65        80        80        67        67        48        48        48        48        51        51        64        64        63        63 
dram[10]:        65        65        80        80        66        66        48        48        48        48        51        51        64        64        63        63 
total reads: 10697
bank skew: 80/48 = 1.67
chip skew: 974/970 = 1.00
number of total write accesses:
dram[0]:         0         0       240       255       152       160         0         0         0         0         0         0         0         0         0         0 
dram[1]:         0         0       240       256       160       152         0         0         0         0         0         0         0         0         0         0 
dram[2]:         0         0       248       256       152       136         0         0         0         0         0         0         0         0         0         0 
dram[3]:         0         0       248       248       144       144         0         0         0         0         0         0         0         0         0         0 
dram[4]:         0         0       256       248       144       136         0         0         0         0         0         0         0         0         0         0 
dram[5]:         0         0       256       248       144       144         0         0         0         0         0         0         0         0         0         0 
dram[6]:         0         0       256       256       136       144         0         0         0         0         0         0         0         0         0         0 
dram[7]:        16        16       256       256       136       141         0         0         0         0         0         0         0         0         0         0 
dram[8]:        16        16       256       247       136       144         0         0         0         0         0         0         0         0         0         0 
dram[9]:        16        16       248       256       128       136         0         0         0         0         0         0         0         0         0         0 
dram[10]:        16        16       248       255       136       136         0         0         0         0         0         0         0         0         0         0 
total reads: 8802
min_bank_accesses = 0!
chip skew: 821/784 = 1.05
average mf latency per bank:
dram[0]:     147510    150133     93526     90316     75481     72221    161878    161454    147551    150163    124049    123794    187616    188414    176338    175466
dram[1]:     148528    148174     95063     87673     72709     72564    160837    166304    150476    149683    123206    123693    188866    188244    174533    172780
dram[2]:     148244    149191     88430     85919     71636     74687    163577    161748    150699    149624    123662    123267    189418    189406    169860    170108
dram[3]:     150443    150089     88163     85955     75254     76505    161167    159822    148577    147558    121858    121932    190293    189717    171737    171144
dram[4]:     150286    150216     83534     83755     76794     80193    160951    161348    150955    151297    124571    124421    195729    193913    169900    169132
dram[5]:     148253    149250     82308     84880     86805     85975    166029    162758    148623    148205    122369    122374    192330    191498    165234    165849
dram[6]:     149400    148649     82825     81039     85830     80633    163562    163902    148221    151115    123318    123757    195762    197154    167696    165551
dram[7]:     143693    142610     86677     83912     84782     81122    164123    167833    153873    151383    123783    123101    193467    190916    163690    164839
dram[8]:     144129    146882     81867     81869     84227     79116    166222    164824    146817    143207    123555    123156    195179    194707    166770    166690
dram[9]:     149021    146361     87013     83953     85400     81624    162830    159336    146181    146247    123909    125355    190901    190862    164652    165060
dram[10]:     147311    147195     85542     82889     83764     84139    164720    162322    145359    145542    126556    125252    193059    192620    165345    167588
maximum mf latency per bank:
dram[0]:     153589    153604    157215    156188    156214    156211    154673    154689    156222    156231    122332    122350    153577    153579    156170    156187
dram[1]:     153603    153657    156183    156180    156222    156235    154674    154689    158788    158797    122329    122347    153588    153593    156181    156187
dram[2]:     153637    153647    156193    156238    156223    156225    154672    154687    158785    158794    122333    122351    153606    153623    156180    156186
dram[3]:     153628    153620    156207    156241    156225    156227    154678    154675    158786    158786    122327    122329    153604    153622    156197    156241
dram[4]:     153625    153638    156209    156206    156217    156218    154656    152089    158792    158811    122295    122345    153624    153624    156194    156239
dram[5]:     153607    153623    156207    156203    156226    156239    154650    154658    158795    158807    122345    122360    153609    153621    156191    156199
dram[6]:     153596    153622    156185    141674    156226    156239    154648    154670    158791    158803    122346    122358    153609    153584    156195    156186
dram[7]:     153624    153609    144994    142441    156240    156225    154649    154661    158788    158803    122358    122359    153577    153591    156154    156187
dram[8]:     153603    153586    142351    147621    156237    156242    154653    154666    158791    156220    122353    122323    153577    153590    156179    156179
dram[9]:     153593    153604    147611    152835    156213    156225    154647    152127    156221    156232    122333    122345    153580    153594    156166    156167
dram[10]:     153587    153609    156184    156192    156227    156228    154661    154679    156218    156231    122339    122342    153575    153575    156169    156170
Memory Partition 0: 
Cache L2_bank_000:
MSHR contents

Cache L2_bank_001:
MSHR contents

In Dram Latency Queue (total = 0): 
DRAM[0]: 16 bks, busW=4 BL=8 CL=12, tRRD=2 tCCD=6, tRCD=12 tRAS=28 tRP=12 tRC=40
n_cmd=1627503 n_nop=1622642 n_act=93 n_pre=77 n_req=1778 n_rd=3884 n_write=807 bw_util=0.005765
n_activity=15269 dram_eff=0.6144
bk0: 260a 1626904i bk1: 256a 1626565i bk2: 320a 1625627i bk3: 320a 1624984i bk4: 272a 1626295i bk5: 272a 1625748i bk6: 192a 1627063i bk7: 192a 1626806i bk8: 192a 1627091i bk9: 192a 1626810i bk10: 200a 1627037i bk11: 200a 1626766i bk12: 256a 1626879i bk13: 256a 1626506i bk14: 252a 1626870i bk15: 252a 1626511i 
dram_util_bins: 0 0 0 0 0 0 0 0 0 0
dram_eff_bins: 0 0 0 0 0 0 0 0 0 0
mrqq: max=50 avg=0.028309
Memory Partition 1: 
Cache L2_bank_002:
MSHR contents

Cache L2_bank_003:
MSHR contents

In Dram Latency Queue (total = 0): 
DRAM[1]: 16 bks, busW=4 BL=8 CL=12, tRRD=2 tCCD=6, tRCD=12 tRAS=28 tRP=12 tRC=40
n_cmd=1627503 n_nop=1622623 n_act=100 n_pre=84 n_req=1780 n_rd=3888 n_write=808 bw_util=0.005771
n_activity=15188 dram_eff=0.6184
bk0: 256a 1626927i bk1: 256a 1626598i bk2: 320a 1625617i bk3: 320a 1624954i bk4: 272a 1626172i bk5: 272a 1625694i bk6: 192a 1627049i bk7: 192a 1626821i bk8: 192a 1627079i bk9: 192a 1626826i bk10: 204a 1627049i bk11: 204a 1626732i bk12: 256a 1626847i bk13: 256a 1626512i bk14: 252a 1626819i bk15: 252a 1626454i 
dram_util_bins: 0 0 0 0 0 0 0 0 0 0
dram_eff_bins: 0 0 0 0 0 0 0 0 0 0
mrqq: max=48 avg=0.0288731
Memory Partition 2: 
Cache L2_bank_004:
MSHR contents

Cache L2_bank_005:
MSHR contents

In Dram Latency Queue (total = 0): 
DRAM[2]: 16 bks, busW=4 BL=8 CL=12, tRRD=2 tCCD=6, tRCD=12 tRAS=28 tRP=12 tRC=40
n_cmd=1627503 n_nop=1622643 n_act=96 n_pre=80 n_req=1765 n_rd=3892 n_write=792 bw_util=0.005756
n_activity=15298 dram_eff=0.6124
bk0: 256a 1626908i bk1: 256a 1626601i bk2: 320a 1625605i bk3: 320a 1625000i bk4: 272a 1626256i bk5: 268a 1625904i bk6: 192a 1627077i bk7: 192a 1626800i bk8: 192a 1627066i bk9: 192a 1626825i bk10: 204a 1627036i bk11: 204a 1626752i bk12: 256a 1626815i bk13: 256a 1626541i bk14: 256a 1626817i bk15: 256a 1626493i 
dram_util_bins: 0 0 0 0 0 0 0 0 0 0
dram_eff_bins: 0 0 0 0 0 0 0 0 0 0
mrqq: max=51 avg=0.0255938
Memory Partition 3: 
Cache L2_bank_006:
MSHR contents

Cache L2_bank_007:
MSHR contents

In Dram Latency Queue (total = 0): 
DRAM[3]: 16 bks, busW=4 BL=8 CL=12, tRRD=2 tCCD=6, tRCD=12 tRAS=28 tRP=12 tRC=40
n_cmd=1627503 n_nop=1622647 n_act=100 n_pre=84 n_req=1756 n_rd=3888 n_write=784 bw_util=0.005741
n_activity=15146 dram_eff=0.6169
bk0: 256a 1626934i bk1: 256a 1626574i bk2: 320a 1625649i bk3: 320a 1625035i bk4: 268a 1626211i bk5: 268a 1625747i bk6: 192a 1627053i bk7: 192a 1626807i bk8: 192a 1627069i bk9: 192a 1626820i bk10: 204a 1627032i bk11: 204a 1626743i bk12: 256a 1626833i bk13: 256a 1626513i bk14: 256a 1626818i bk15: 256a 1626487i 
dram_util_bins: 0 0 0 0 0 0 0 0 0 0
dram_eff_bins: 0 0 0 0 0 0 0 0 0 0
mrqq: max=45 avg=0.0271993
Memory Partition 4: 
Cache L2_bank_008:
MSHR contents

Cache L2_bank_009:
MSHR contents

In Dram Latency Queue (total = 0): 
DRAM[4]: 16 bks, busW=4 BL=8 CL=12, tRRD=2 tCCD=6, tRCD=12 tRAS=28 tRP=12 tRC=40
n_cmd=1627503 n_nop=1622647 n_act=96 n_pre=80 n_req=1758 n_rd=3896 n_write=784 bw_util=0.005751
n_activity=15059 dram_eff=0.6216
bk0: 256a 1626930i bk1: 256a 1626609i bk2: 320a 1625655i bk3: 320a 1624952i bk4: 268a 1626152i bk5: 268a 1625784i bk6: 192a 1627048i bk7: 192a 1626812i bk8: 192a 1627079i bk9: 192a 1626811i bk10: 204a 1627028i bk11: 204a 1626765i bk12: 256a 1626834i bk13: 256a 1626529i bk14: 260a 1626832i bk15: 260a 1626460i 
dram_util_bins: 0 0 0 0 0 0 0 0 0 0
dram_eff_bins: 0 0 0 0 0 0 0 0 0 0
mrqq: max=38 avg=0.0253038
Memory Partition 5: 
Cache L2_bank_010:
MSHR contents

Cache L2_bank_011:
MSHR contents

In Dram Latency Queue (total = 0): 
DRAM[5]: 16 bks, busW=4 BL=8 CL=12, tRRD=2 tCCD=6, tRCD=12 tRAS=28 tRP=12 tRC=40
n_cmd=1627503 n_nop=1622649 n_act=91 n_pre=75 n_req=1766 n_rd=3896 n_write=792 bw_util=0.005761
n_activity=15019 dram_eff=0.6243
bk0: 256a 1626940i bk1: 256a 1626598i bk2: 320a 1625615i bk3: 320a 1625013i bk4: 268a 1626242i bk5: 268a 1625699i bk6: 192a 1627045i bk7: 192a 1626827i bk8: 192a 1627083i bk9: 192a 1626804i bk10: 204a 1627042i bk11: 204a 1626735i bk12: 256a 1626887i bk13: 256a 1626585i bk14: 260a 1626832i bk15: 260a 1626484i 
dram_util_bins: 0 0 0 0 0 0 0 0 0 0
dram_eff_bins: 0 0 0 0 0 0 0 0 0 0
mrqq: max=54 avg=0.0294764
Memory Partition 6: 
Cache L2_bank_012:
MSHR contents

Cache L2_bank_013:
MSHR contents

In Dram Latency Queue (total = 0): 
DRAM[6]: 16 bks, busW=4 BL=8 CL=12, tRRD=2 tCCD=6, tRCD=12 tRAS=28 tRP=12 tRC=40
n_cmd=1627503 n_nop=1622647 n_act=92 n_pre=76 n_req=1766 n_rd=3896 n_write=792 bw_util=0.005761
n_activity=14931 dram_eff=0.628
bk0: 256a 1626943i bk1: 256a 1626592i bk2: 320a 1625617i bk3: 320a 1624947i bk4: 268a 1626302i bk5: 268a 1625826i bk6: 192a 1627064i bk7: 192a 1626818i bk8: 192a 1627077i bk9: 192a 1626821i bk10: 204a 1627025i bk11: 204a 1626751i bk12: 256a 1626896i bk13: 256a 1626550i bk14: 260a 1626804i bk15: 260a 1626462i 
dram_util_bins: 0 0 0 0 0 0 0 0 0 0
dram_eff_bins: 0 0 0 0 0 0 0 0 0 0
mrqq: max=43 avg=0.0286039
Memory Partition 7: 
Cache L2_bank_014:
MSHR contents

Cache L2_bank_015:
MSHR contents

In Dram Latency Queue (total = 0): 
DRAM[7]: 16 bks, busW=4 BL=8 CL=12, tRRD=2 tCCD=6, tRCD=12 tRAS=28 tRP=12 tRC=40
n_cmd=1627503 n_nop=1622626 n_act=90 n_pre=74 n_req=1794 n_rd=3892 n_write=821 bw_util=0.005792
n_activity=14965 dram_eff=0.6299
bk0: 260a 1626828i bk1: 260a 1626461i bk2: 320a 1625591i bk3: 320a 1624930i bk4: 268a 1626307i bk5: 268a 1625812i bk6: 192a 1627058i bk7: 192a 1626815i bk8: 192a 1627067i bk9: 192a 1626811i bk10: 204a 1627020i bk11: 204a 1626750i bk12: 256a 1626899i bk13: 256a 1626557i bk14: 256a 1626850i bk15: 252a 1626533i 
dram_util_bins: 0 0 0 0 0 0 0 0 0 0
dram_eff_bins: 0 0 0 0 0 0 0 0 0 0
mrqq: max=47 avg=0.0322512
Memory Partition 8: 
Cache L2_bank_016:
MSHR contents

Cache L2_bank_017:
MSHR contents

In Dram Latency Queue (total = 0): 
DRAM[8]: 16 bks, busW=4 BL=8 CL=12, tRRD=2 tCCD=6, tRCD=12 tRAS=28 tRP=12 tRC=40
n_cmd=1627503 n_nop=1622636 n_act=90 n_pre=74 n_req=1787 n_rd=3888 n_write=815 bw_util=0.005779
n_activity=15069 dram_eff=0.6242
bk0: 260a 1626842i bk1: 260a 1626489i bk2: 320a 1625641i bk3: 320a 1625005i bk4: 268a 1626257i bk5: 268a 1625831i bk6: 192a 1627065i bk7: 192a 1626805i bk8: 192a 1627089i bk9: 192a 1626818i bk10: 204a 1627025i bk11: 204a 1626764i bk12: 256a 1626894i bk13: 256a 1626565i bk14: 252a 1626865i bk15: 252a 1626537i 
dram_util_bins: 0 0 0 0 0 0 0 0 0 0
dram_eff_bins: 0 0 0 0 0 0 0 0 0 0
mrqq: max=45 avg=0.0275268
Memory Partition 9: 
Cache L2_bank_018:
MSHR contents

Cache L2_bank_019:
MSHR contents

In Dram Latency Queue (total = 0): 
DRAM[9]: 16 bks, busW=4 BL=8 CL=12, tRRD=2 tCCD=6, tRCD=12 tRAS=28 tRP=12 tRC=40
n_cmd=1627503 n_nop=1622651 n_act=90 n_pre=74 n_req=1772 n_rd=3888 n_write=800 bw_util=0.005761
n_activity=14959 dram_eff=0.6268
bk0: 260a 1626815i bk1: 260a 1626470i bk2: 320a 1625612i bk3: 320a 1624942i bk4: 268a 1626342i bk5: 268a 1625811i bk6: 192a 1627075i bk7: 192a 1626806i bk8: 192a 1627089i bk9: 192a 1626830i bk10: 204a 1627030i bk11: 204a 1626748i bk12: 256a 1626860i bk13: 256a 1626534i bk14: 252a 1626878i bk15: 252a 1626543i 
dram_util_bins: 0 0 0 0 0 0 0 0 0 0
dram_eff_bins: 0 0 0 0 0 0 0 0 0 0
mrqq: max=51 avg=0.0294912
Memory Partition 10: 
Cache L2_bank_020:
MSHR contents

Cache L2_bank_021:
MSHR contents

In Dram Latency Queue (total = 0): 
DRAM[10]: 16 bks, busW=4 BL=8 CL=12, tRRD=2 tCCD=6, tRCD=12 tRAS=28 tRP=12 tRC=40
n_cmd=1627503 n_nop=1622652 n_act=90 n_pre=74 n_req=1777 n_rd=3880 n_write=807 bw_util=0.00576
n_activity=15078 dram_eff=0.6217
bk0: 260a 1626803i bk1: 260a 1626503i bk2: 320a 1625600i bk3: 320a 1624980i bk4: 264a 1626263i bk5: 264a 1625849i bk6: 192a 1627058i bk7: 192a 1626835i bk8: 192a 1627082i bk9: 192a 1626814i bk10: 204a 1627038i bk11: 204a 1626750i bk12: 256a 1626890i bk13: 256a 1626557i bk14: 252a 1626870i bk15: 252a 1626513i 
dram_util_bins: 0 0 0 0 0 0 0 0 0 0
dram_eff_bins: 0 0 0 0 0 0 0 0 0 0
mrqq: max=44 avg=0.0283379

========= L2 cache stats =========
L2_cache_bank[0]: Access = 2503, Miss = 486, Miss_rate = 0.194, Pending_hits = 1122, Reservation_fails = 0
L2_cache_bank[1]: Access = 2473, Miss = 485, Miss_rate = 0.196, Pending_hits = 1154, Reservation_fails = 0
L2_cache_bank[2]: Access = 2491, Miss = 486, Miss_rate = 0.195, Pending_hits = 1156, Reservation_fails = 0
L2_cache_bank[3]: Access = 2492, Miss = 486, Miss_rate = 0.195, Pending_hits = 1150, Reservation_fails = 0
L2_cache_bank[4]: Access = 2486, Miss = 487, Miss_rate = 0.196, Pending_hits = 1124, Reservation_fails = 0
L2_cache_bank[5]: Access = 2480, Miss = 486, Miss_rate = 0.196, Pending_hits = 1159, Reservation_fails = 0
L2_cache_bank[6]: Access = 2478, Miss = 486, Miss_rate = 0.196, Pending_hits = 1160, Reservation_fails = 0
L2_cache_bank[7]: Access = 2480, Miss = 486, Miss_rate = 0.196, Pending_hits = 1166, Reservation_fails = 0
L2_cache_bank[8]: Access = 2508, Miss = 487, Miss_rate = 0.194, Pending_hits = 1184, Reservation_fails = 0
L2_cache_bank[9]: Access = 2508, Miss = 487, Miss_rate = 0.194, Pending_hits = 1186, Reservation_fails = 0
L2_cache_bank[10]: Access = 2508, Miss = 487, Miss_rate = 0.194, Pending_hits = 1199, Reservation_fails = 0
L2_cache_bank[11]: Access = 2506, Miss = 487, Miss_rate = 0.194, Pending_hits = 1167, Reservation_fails = 0
L2_cache_bank[12]: Access = 2508, Miss = 487, Miss_rate = 0.194, Pending_hits = 1166, Reservation_fails = 0
L2_cache_bank[13]: Access = 2508, Miss = 487, Miss_rate = 0.194, Pending_hits = 1176, Reservation_fails = 0
L2_cache_bank[14]: Access = 2488, Miss = 487, Miss_rate = 0.196, Pending_hits = 1158, Reservation_fails = 0
L2_cache_bank[15]: Access = 2479, Miss = 486, Miss_rate = 0.196, Pending_hits = 1162, Reservation_fails = 0
L2_cache_bank[16]: Access = 2479, Miss = 486, Miss_rate = 0.196, Pending_hits = 1157, Reservation_fails = 0
L2_cache_bank[17]: Access = 2479, Miss = 486, Miss_rate = 0.196, Pending_hits = 1145, Reservation_fails = 0
L2_cache_bank[18]: Access = 2477, Miss = 486, Miss_rate = 0.196, Pending_hits = 1124, Reservation_fails = 0
L2_cache_bank[19]: Access = 2477, Miss = 486, Miss_rate = 0.196, Pending_hits = 1148, Reservation_fails = 0
L2_cache_bank[20]: Access = 2475, Miss = 485, Miss_rate = 0.196, Pending_hits = 1147, Reservation_fails = 0
L2_cache_bank[21]: Access = 2475, Miss = 485, Miss_rate = 0.196, Pending_hits = 1147, Reservation_fails = 0
L2_total_cache_accesses = 54758
L2_total_cache_misses = 10697
L2_total_cache_miss_rate = 0.1954
L2_total_cache_pending_hits = 25457
L2_total_cache_reservation_fails = 0
L2_total_cache_breakdown:
	L2_cache_stats_breakdown[GLOBAL_ACC_R][HIT] = 328
	L2_cache_stats_breakdown[GLOBAL_ACC_R][HIT_RESERVED] = 17107
	L2_cache_stats_breakdown[GLOBAL_ACC_R][MISS] = 10127
	L2_cache_stats_breakdown[GLOBAL_ACC_R][RESERVATION_FAIL] = 0
	L2_cache_stats_breakdown[LOCAL_ACC_R][HIT] = 0
	L2_cache_stats_breakdown[LOCAL_ACC_R][HIT_RESERVED] = 0
	L2_cache_stats_breakdown[LOCAL_ACC_R][MISS] = 0
	L2_cache_stats_breakdown[LOCAL_ACC_R][RESERVATION_FAIL] = 0
	L2_cache_stats_breakdown[CONST_ACC_R][HIT] = 0
	L2_cache_stats_breakdown[CONST_ACC_R][HIT_RESERVED] = 27
	L2_cache_stats_breakdown[CONST_ACC_R][MISS] = 1
	L2_cache_stats_breakdown[CONST_ACC_R][RESERVATION_FAIL] = 0
	L2_cache_stats_breakdown[TEXTURE_ACC_R][HIT] = 0
	L2_cache_stats_breakdown[TEXTURE_ACC_R][HIT_RESERVED] = 0
	L2_cache_stats_breakdown[TEXTURE_ACC_R][MISS] = 0
	L2_cache_stats_breakdown[TEXTURE_ACC_R][RESERVATION_FAIL] = 0
	L2_cache_stats_breakdown[GLOBAL_ACC_W][HIT] = 18198
	L2_cache_stats_breakdown[GLOBAL_ACC_W][HIT_RESERVED] = 8239
	L2_cache_stats_breakdown[GLOBAL_ACC_W][MISS] = 563
	L2_cache_stats_breakdown[GLOBAL_ACC_W][RESERVATION_FAIL] = 0
	L2_cache_stats_breakdown[LOCAL_ACC_W][HIT] = 0
	L2_cache_stats_breakdown[LOCAL_ACC_W][HIT_RESERVED] = 0
	L2_cache_stats_breakdown[LOCAL_ACC_W][MISS] = 0
	L2_cache_stats_breakdown[LOCAL_ACC_W][RESERVATION_FAIL] = 0
	L2_cache_stats_breakdown[L1_WRBK_ACC][HIT] = 0
	L2_cache_stats_breakdown[L1_WRBK_ACC][HIT_RESERVED] = 0
	L2_cache_stats_breakdown[L1_WRBK_ACC][MISS] = 0
	L2_cache_stats_breakdown[L1_WRBK_ACC][RESERVATION_FAIL] = 0
	L2_cache_stats_breakdown[L2_WRBK_ACC][HIT] = 0
	L2_cache_stats_breakdown[L2_WRBK_ACC][HIT_RESERVED] = 0
	L2_cache_stats_breakdown[L2_WRBK_ACC][MISS] = 0
	L2_cache_stats_breakdown[L2_WRBK_ACC][RESERVATION_FAIL] = 0
	L2_cache_stats_breakdown[INST_ACC_R][HIT] = 78
	L2_cache_stats_breakdown[INST_ACC_R][HIT_RESERVED] = 84
	L2_cache_stats_breakdown[INST_ACC_R][MISS] = 6
	L2_cache_stats_breakdown[INST_ACC_R][RESERVATION_FAIL] = 0
	L2_cache_stats_breakdown[L1_WR_ALLOC_R][HIT] = 0
	L2_cache_stats_breakdown[L1_WR_ALLOC_R][HIT_RESERVED] = 0
	L2_cache_stats_breakdown[L1_WR_ALLOC_R][MISS] = 0
	L2_cache_stats_breakdown[L1_WR_ALLOC_R][RESERVATION_FAIL] = 0
	L2_cache_stats_breakdown[L2_WR_ALLOC_R][HIT] = 0
	L2_cache_stats_breakdown[L2_WR_ALLOC_R][HIT_RESERVED] = 0
	L2_cache_stats_breakdown[L2_WR_ALLOC_R][MISS] = 0
	L2_cache_stats_breakdown[L2_WR_ALLOC_R][RESERVATION_FAIL] = 0
	L2_cache_stats_breakdown[GLOBAL_ACC_R][TOTAL_ACCESS] = 27562
	L2_cache_stats_breakdown[CONST_ACC_R][TOTAL_ACCESS] = 28
	L2_cache_stats_breakdown[GLOBAL_ACC_W][TOTAL_ACCESS] = 27000
	L2_cache_stats_breakdown[INST_ACC_R][TOTAL_ACCESS] = 168
L2_cache_data_port_util = 0.003
L2_cache_fill_port_util = 0.002

icnt_total_pkts_mem_to_simt=117361
icnt_total_pkts_simt_to_mem=113257
LD_mem_lat_dist  0 0 0 0 0 0 0 0 0 0 0 0 0 0 0 0 0 0 0 0 0 0 0 0 0 0 0
ST_mem_lat_dist  0 0 0 0 0 0 0 0 0 0 0 0 0 0 0 0 0 0 0 0 0 0 0 0 0 0 0
----------------------------Interconnect-DETAILS--------------------------------
Class 0:
Packet latency average = 16.4107
	minimum = 6
	maximum = 141
Network latency average = 13.7853
	minimum = 6
	maximum = 141
Slowest packet = 75693
Flit latency average = 14.7917
	minimum = 6
	maximum = 137
Slowest flit = 158919
Fragmentation average = 0
	minimum = 0
	maximum = 0
Injected packet rate average = 0.00124949
	minimum = 0.00105649 (at node 15)
	maximum = 0.00143072 (at node 36)
Accepted packet rate average = 0.00124949
	minimum = 0.00105649 (at node 15)
	maximum = 0.00143072 (at node 36)
Injected flit rate average = 0.00263117
	minimum = 0.00218601 (at node 15)
	maximum = 0.00310616 (at node 36)
Accepted flit rate average= 0.00263117
	minimum = 0.00226359 (at node 15)
	maximum = 0.00294643 (at node 28)
Injected packet length average = 2.10579
Accepted packet length average = 2.10579
Total in-flight flits = 0 (0 measured)
====== Overall Traffic Statistics ======
====== Traffic class 0 ======
Packet latency average = 16.4107 (1 samples)
	minimum = 6 (1 samples)
	maximum = 141 (1 samples)
Network latency average = 13.7853 (1 samples)
	minimum = 6 (1 samples)
	maximum = 141 (1 samples)
Flit latency average = 14.7917 (1 samples)
	minimum = 6 (1 samples)
	maximum = 137 (1 samples)
Fragmentation average = 0 (1 samples)
	minimum = 0 (1 samples)
	maximum = 0 (1 samples)
Injected packet rate average = 0.00124949 (1 samples)
	minimum = 0.00105649 (1 samples)
	maximum = 0.00143072 (1 samples)
Accepted packet rate average = 0.00124949 (1 samples)
	minimum = 0.00105649 (1 samples)
	maximum = 0.00143072 (1 samples)
Injected flit rate average = 0.00263117 (1 samples)
	minimum = 0.00218601 (1 samples)
	maximum = 0.00310616 (1 samples)
Accepted flit rate average = 0.00263117 (1 samples)
	minimum = 0.00226359 (1 samples)
	maximum = 0.00294643 (1 samples)
Injected packet size average = 2.10579 (1 samples)
Accepted packet size average = 2.10579 (1 samples)
Hops average = 1 (1 samples)
----------------------------END-of-Interconnect-DETAILS-------------------------


gpgpu_simulation_time = 0 days, 0 hrs, 59 min, 3 sec (3543 sec)
gpgpu_simulation_rate = 8718 (inst/sec)
gpgpu_simulation_rate = 310 (cycle/sec)
GPGPU-Sim: synchronize waiting for inactive GPU simulation
GPGPU-Sim API: Stream Manager State
GPGPU-Sim: detected inactive GPU simulation thread

GPGPU-Sim PTX: cudaLaunch for 0x0x402d5b (mode=performance simulation) on stream 0
GPGPU-Sim PTX: pushing kernel '_Z24bpnn_adjust_weights_cudaPfiS_iS_S_' to stream 0, gridDim= (1,1125,1) blockDim = (16,16,1) 
GPGPU-Sim uArch: Shader 19 bind to kernel 2 '_Z24bpnn_adjust_weights_cudaPfiS_iS_S_'
GPGPU-Sim uArch: CTA/core = 8, limited by: threads
GPGPU-Sim uArch: Shader 20 bind to kernel 2 '_Z24bpnn_adjust_weights_cudaPfiS_iS_S_'
GPGPU-Sim uArch: Shader 21 bind to kernel 2 '_Z24bpnn_adjust_weights_cudaPfiS_iS_S_'
GPGPU-Sim uArch: Shader 22 bind to kernel 2 '_Z24bpnn_adjust_weights_cudaPfiS_iS_S_'
GPGPU-Sim uArch: Shader 23 bind to kernel 2 '_Z24bpnn_adjust_weights_cudaPfiS_iS_S_'
GPGPU-Sim uArch: Shader 24 bind to kernel 2 '_Z24bpnn_adjust_weights_cudaPfiS_iS_S_'
GPGPU-Sim uArch: Shader 25 bind to kernel 2 '_Z24bpnn_adjust_weights_cudaPfiS_iS_S_'
GPGPU-Sim uArch: Shader 26 bind to kernel 2 '_Z24bpnn_adjust_weights_cudaPfiS_iS_S_'
GPGPU-Sim uArch: Shader 27 bind to kernel 2 '_Z24bpnn_adjust_weights_cudaPfiS_iS_S_'
GPGPU-Sim uArch: Shader 0 bind to kernel 2 '_Z24bpnn_adjust_weights_cudaPfiS_iS_S_'
GPGPU-Sim uArch: Shader 1 bind to kernel 2 '_Z24bpnn_adjust_weights_cudaPfiS_iS_S_'
GPGPU-Sim uArch: Shader 2 bind to kernel 2 '_Z24bpnn_adjust_weights_cudaPfiS_iS_S_'
GPGPU-Sim uArch: Shader 3 bind to kernel 2 '_Z24bpnn_adjust_weights_cudaPfiS_iS_S_'
GPGPU-Sim uArch: Shader 4 bind to kernel 2 '_Z24bpnn_adjust_weights_cudaPfiS_iS_S_'
GPGPU-Sim uArch: Shader 5 bind to kernel 2 '_Z24bpnn_adjust_weights_cudaPfiS_iS_S_'
GPGPU-Sim uArch: Shader 6 bind to kernel 2 '_Z24bpnn_adjust_weights_cudaPfiS_iS_S_'
GPGPU-Sim uArch: Shader 7 bind to kernel 2 '_Z24bpnn_adjust_weights_cudaPfiS_iS_S_'
GPGPU-Sim uArch: Shader 8 bind to kernel 2 '_Z24bpnn_adjust_weights_cudaPfiS_iS_S_'
GPGPU-Sim uArch: Shader 9 bind to kernel 2 '_Z24bpnn_adjust_weights_cudaPfiS_iS_S_'
GPGPU-Sim uArch: Shader 10 bind to kernel 2 '_Z24bpnn_adjust_weights_cudaPfiS_iS_S_'
GPGPU-Sim uArch: Shader 11 bind to kernel 2 '_Z24bpnn_adjust_weights_cudaPfiS_iS_S_'
GPGPU-Sim uArch: Shader 12 bind to kernel 2 '_Z24bpnn_adjust_weights_cudaPfiS_iS_S_'
GPGPU-Sim uArch: Shader 13 bind to kernel 2 '_Z24bpnn_adjust_weights_cudaPfiS_iS_S_'
GPGPU-Sim uArch: Shader 14 bind to kernel 2 '_Z24bpnn_adjust_weights_cudaPfiS_iS_S_'
GPGPU-Sim uArch: Shader 15 bind to kernel 2 '_Z24bpnn_adjust_weights_cudaPfiS_iS_S_'
GPGPU-Sim uArch: Shader 16 bind to kernel 2 '_Z24bpnn_adjust_weights_cudaPfiS_iS_S_'
GPGPU-Sim uArch: Shader 17 bind to kernel 2 '_Z24bpnn_adjust_weights_cudaPfiS_iS_S_'
GPGPU-Sim uArch: Shader 18 bind to kernel 2 '_Z24bpnn_adjust_weights_cudaPfiS_iS_S_'
Destroy streams for kernel 2: size 0
kernel_name = _Z24bpnn_adjust_weights_cudaPfiS_iS_S_ 
kernel_launch_uid = 2 
gpu_sim_cycle = 1573227
gpu_sim_insn = 15552352
gpu_ipc =       9.8856
gpu_tot_sim_cycle = 3063629
gpu_tot_sim_insn = 46440352
gpu_tot_ipc =      15.1586
gpu_tot_issued_cta = 2250
max_total_param_size = 0
gpu_stall_dramfull = 35670
gpu_stall_icnt2sh    = 17321
partiton_reqs_in_parallel = 34575324
partiton_reqs_in_parallel_total    = 19282670
partiton_level_parallism =      21.9773
partiton_level_parallism_total  =      17.5798
partiton_reqs_in_parallel_util = 34575324
partiton_reqs_in_parallel_util_total    = 19282670
gpu_sim_cycle_parition_util = 1573227
gpu_tot_sim_cycle_parition_util    = 876485
partiton_level_parallism_util =      21.9773
partiton_level_parallism_util_total  =      21.9854
partiton_replys_in_parallel = 127244
partiton_replys_in_parallel_total    = 54758
L2_BW  =       7.6662 GB/Sec
L2_BW_total  =       5.6309 GB/Sec
gpu_total_sim_rate=5593

========= Core cache stats =========
L1I_cache:
	L1I_total_cache_accesses = 894386
	L1I_total_cache_misses = 6353
	L1I_total_cache_miss_rate = 0.0071
	L1I_total_cache_pending_hits = 0
	L1I_total_cache_reservation_fails = 61366
L1D_cache:
	L1D_cache_core[0]: Access = 0, Miss = 0, Miss_rate = -nan, Pending_hits = 0, Reservation_fails = 0
	L1D_cache_core[1]: Access = 0, Miss = 0, Miss_rate = -nan, Pending_hits = 0, Reservation_fails = 0
	L1D_cache_core[2]: Access = 0, Miss = 0, Miss_rate = -nan, Pending_hits = 0, Reservation_fails = 0
	L1D_cache_core[3]: Access = 0, Miss = 0, Miss_rate = -nan, Pending_hits = 0, Reservation_fails = 0
	L1D_cache_core[4]: Access = 0, Miss = 0, Miss_rate = -nan, Pending_hits = 0, Reservation_fails = 0
	L1D_cache_core[5]: Access = 0, Miss = 0, Miss_rate = -nan, Pending_hits = 0, Reservation_fails = 0
	L1D_cache_core[6]: Access = 0, Miss = 0, Miss_rate = -nan, Pending_hits = 0, Reservation_fails = 0
	L1D_cache_core[7]: Access = 0, Miss = 0, Miss_rate = -nan, Pending_hits = 0, Reservation_fails = 0
	L1D_cache_core[8]: Access = 0, Miss = 0, Miss_rate = -nan, Pending_hits = 0, Reservation_fails = 0
	L1D_cache_core[9]: Access = 0, Miss = 0, Miss_rate = -nan, Pending_hits = 0, Reservation_fails = 0
	L1D_cache_core[10]: Access = 0, Miss = 0, Miss_rate = -nan, Pending_hits = 0, Reservation_fails = 0
	L1D_cache_core[11]: Access = 0, Miss = 0, Miss_rate = -nan, Pending_hits = 0, Reservation_fails = 0
	L1D_cache_core[12]: Access = 0, Miss = 0, Miss_rate = -nan, Pending_hits = 0, Reservation_fails = 0
	L1D_cache_core[13]: Access = 0, Miss = 0, Miss_rate = -nan, Pending_hits = 0, Reservation_fails = 0
	L1D_cache_core[14]: Access = 0, Miss = 0, Miss_rate = -nan, Pending_hits = 0, Reservation_fails = 0
	L1D_cache_core[15]: Access = 0, Miss = 0, Miss_rate = -nan, Pending_hits = 0, Reservation_fails = 0
	L1D_cache_core[16]: Access = 0, Miss = 0, Miss_rate = -nan, Pending_hits = 0, Reservation_fails = 0
	L1D_cache_core[17]: Access = 0, Miss = 0, Miss_rate = -nan, Pending_hits = 0, Reservation_fails = 0
	L1D_cache_core[18]: Access = 0, Miss = 0, Miss_rate = -nan, Pending_hits = 0, Reservation_fails = 0
	L1D_cache_core[19]: Access = 0, Miss = 0, Miss_rate = -nan, Pending_hits = 0, Reservation_fails = 0
	L1D_cache_core[20]: Access = 0, Miss = 0, Miss_rate = -nan, Pending_hits = 0, Reservation_fails = 0
	L1D_cache_core[21]: Access = 0, Miss = 0, Miss_rate = -nan, Pending_hits = 0, Reservation_fails = 0
	L1D_cache_core[22]: Access = 0, Miss = 0, Miss_rate = -nan, Pending_hits = 0, Reservation_fails = 0
	L1D_cache_core[23]: Access = 0, Miss = 0, Miss_rate = -nan, Pending_hits = 0, Reservation_fails = 0
	L1D_cache_core[24]: Access = 0, Miss = 0, Miss_rate = -nan, Pending_hits = 0, Reservation_fails = 0
	L1D_cache_core[25]: Access = 0, Miss = 0, Miss_rate = -nan, Pending_hits = 0, Reservation_fails = 0
	L1D_cache_core[26]: Access = 0, Miss = 0, Miss_rate = -nan, Pending_hits = 0, Reservation_fails = 0
	L1D_cache_core[27]: Access = 0, Miss = 0, Miss_rate = -nan, Pending_hits = 0, Reservation_fails = 0
	L1D_total_cache_accesses = 0
	L1D_total_cache_misses = 0
	L1D_total_cache_pending_hits = 0
	L1D_total_cache_reservation_fails = 0
	L1D_cache_data_port_util = 0.000
	L1D_cache_fill_port_util = 0.000
L1C_cache:
	L1C_total_cache_accesses = 81000
	L1C_total_cache_misses = 1792
	L1C_total_cache_miss_rate = 0.0221
	L1C_total_cache_pending_hits = 0
	L1C_total_cache_reservation_fails = 4886
L1T_cache:
	L1T_total_cache_accesses = 0
	L1T_total_cache_misses = 0
	L1T_total_cache_pending_hits = 0
	L1T_total_cache_reservation_fails = 0

Total_core_cache_stats:
	Total_core_cache_stats_breakdown[GLOBAL_ACC_R][HIT] = 0
	Total_core_cache_stats_breakdown[GLOBAL_ACC_R][HIT_RESERVED] = 0
	Total_core_cache_stats_breakdown[GLOBAL_ACC_R][MISS] = 0
	Total_core_cache_stats_breakdown[GLOBAL_ACC_R][RESERVATION_FAIL] = 0
	Total_core_cache_stats_breakdown[LOCAL_ACC_R][HIT] = 0
	Total_core_cache_stats_breakdown[LOCAL_ACC_R][HIT_RESERVED] = 0
	Total_core_cache_stats_breakdown[LOCAL_ACC_R][MISS] = 0
	Total_core_cache_stats_breakdown[LOCAL_ACC_R][RESERVATION_FAIL] = 0
	Total_core_cache_stats_breakdown[CONST_ACC_R][HIT] = 79208
	Total_core_cache_stats_breakdown[CONST_ACC_R][HIT_RESERVED] = 0
	Total_core_cache_stats_breakdown[CONST_ACC_R][MISS] = 1792
	Total_core_cache_stats_breakdown[CONST_ACC_R][RESERVATION_FAIL] = 4886
	Total_core_cache_stats_breakdown[TEXTURE_ACC_R][HIT] = 0
	Total_core_cache_stats_breakdown[TEXTURE_ACC_R][HIT_RESERVED] = 0
	Total_core_cache_stats_breakdown[TEXTURE_ACC_R][MISS] = 0
	Total_core_cache_stats_breakdown[TEXTURE_ACC_R][RESERVATION_FAIL] = 0
	Total_core_cache_stats_breakdown[GLOBAL_ACC_W][HIT] = 0
	Total_core_cache_stats_breakdown[GLOBAL_ACC_W][HIT_RESERVED] = 0
	Total_core_cache_stats_breakdown[GLOBAL_ACC_W][MISS] = 0
	Total_core_cache_stats_breakdown[GLOBAL_ACC_W][RESERVATION_FAIL] = 0
	Total_core_cache_stats_breakdown[LOCAL_ACC_W][HIT] = 0
	Total_core_cache_stats_breakdown[LOCAL_ACC_W][HIT_RESERVED] = 0
	Total_core_cache_stats_breakdown[LOCAL_ACC_W][MISS] = 0
	Total_core_cache_stats_breakdown[LOCAL_ACC_W][RESERVATION_FAIL] = 0
	Total_core_cache_stats_breakdown[L1_WRBK_ACC][HIT] = 0
	Total_core_cache_stats_breakdown[L1_WRBK_ACC][HIT_RESERVED] = 0
	Total_core_cache_stats_breakdown[L1_WRBK_ACC][MISS] = 0
	Total_core_cache_stats_breakdown[L1_WRBK_ACC][RESERVATION_FAIL] = 0
	Total_core_cache_stats_breakdown[L2_WRBK_ACC][HIT] = 0
	Total_core_cache_stats_breakdown[L2_WRBK_ACC][HIT_RESERVED] = 0
	Total_core_cache_stats_breakdown[L2_WRBK_ACC][MISS] = 0
	Total_core_cache_stats_breakdown[L2_WRBK_ACC][RESERVATION_FAIL] = 0
	Total_core_cache_stats_breakdown[INST_ACC_R][HIT] = 888033
	Total_core_cache_stats_breakdown[INST_ACC_R][HIT_RESERVED] = 0
	Total_core_cache_stats_breakdown[INST_ACC_R][MISS] = 6353
	Total_core_cache_stats_breakdown[INST_ACC_R][RESERVATION_FAIL] = 61366
	Total_core_cache_stats_breakdown[L1_WR_ALLOC_R][HIT] = 0
	Total_core_cache_stats_breakdown[L1_WR_ALLOC_R][HIT_RESERVED] = 0
	Total_core_cache_stats_breakdown[L1_WR_ALLOC_R][MISS] = 0
	Total_core_cache_stats_breakdown[L1_WR_ALLOC_R][RESERVATION_FAIL] = 0
	Total_core_cache_stats_breakdown[L2_WR_ALLOC_R][HIT] = 0
	Total_core_cache_stats_breakdown[L2_WR_ALLOC_R][HIT_RESERVED] = 0
	Total_core_cache_stats_breakdown[L2_WR_ALLOC_R][MISS] = 0
	Total_core_cache_stats_breakdown[L2_WR_ALLOC_R][RESERVATION_FAIL] = 0
	Total_core_cache_stats_breakdown[CONST_ACC_R][TOTAL_ACCESS] = 81000
	Total_core_cache_stats_breakdown[INST_ACC_R][TOTAL_ACCESS] = 894386
Shader 0 warp_id issue ditsribution:
warp_id:
[...]
F:  2515551----T:  2518156 	 St: c0334000 Sz: 4096 	 Sm: 0 	 T: memcpy_h2d(1.758947)
F:  2518156----T:  2520761 	 St: c0335000 Sz: 4096 	 Sm: 0 	 T: memcpy_h2d(1.758947)
F:  2520761----T:  2523366 	 St: c0336000 Sz: 4096 	 Sm: 0 	 T: memcpy_h2d(1.758947)
F:  2523366----T:  2525971 	 St: c0337000 Sz: 4096 	 Sm: 0 	 T: memcpy_h2d(1.758947)
F:  2525971----T:  2528576 	 St: c0338000 Sz: 4096 	 Sm: 0 	 T: memcpy_h2d(1.758947)
F:  2528576----T:  2531181 	 St: c0339000 Sz: 4096 	 Sm: 0 	 T: memcpy_h2d(1.758947)
F:  2531181----T:  2533786 	 St: c033a000 Sz: 4096 	 Sm: 0 	 T: memcpy_h2d(1.758947)
F:  2533786----T:  2536391 	 St: c033b000 Sz: 4096 	 Sm: 0 	 T: memcpy_h2d(1.758947)
F:  2536391----T:  2538996 	 St: c033c000 Sz: 4096 	 Sm: 0 	 T: memcpy_h2d(1.758947)
F:  2538996----T:  2541601 	 St: c033d000 Sz: 4096 	 Sm: 0 	 T: memcpy_h2d(1.758947)
F:  2541601----T:  2544206 	 St: c033e000 Sz: 4096 	 Sm: 0 	 T: memcpy_h2d(1.758947)
F:  2544206----T:  2546811 	 St: c033f000 Sz: 4096 	 Sm: 0 	 T: memcpy_h2d(1.758947)
F:  2546811----T:  2549416 	 St: c0340000 Sz: 4096 	 Sm: 0 	 T: memcpy_h2d(1.758947)
F:  2549416----T:  2552021 	 St: c0341000 Sz: 4096 	 Sm: 0 	 T: memcpy_h2d(1.758947)
F:  2552021----T:  2554626 	 St: c0342000 Sz: 4096 	 Sm: 0 	 T: memcpy_h2d(1.758947)
F:  2554626----T:  2557231 	 St: c0343000 Sz: 4096 	 Sm: 0 	 T: memcpy_h2d(1.758947)
F:  2557231----T:  2559836 	 St: c0344000 Sz: 4096 	 Sm: 0 	 T: memcpy_h2d(1.758947)
F:  2559836----T:  2562441 	 St: c0345000 Sz: 4096 	 Sm: 0 	 T: memcpy_h2d(1.758947)
F:  2562441----T:  2565046 	 St: c0346000 Sz: 4096 	 Sm: 0 	 T: memcpy_h2d(1.758947)
F:  2565046----T:  2567651 	 St: c0347000 Sz: 4096 	 Sm: 0 	 T: memcpy_h2d(1.758947)
F:  2567651----T:  2570256 	 St: c0348000 Sz: 4096 	 Sm: 0 	 T: memcpy_h2d(1.758947)
F:  2570256----T:  2572861 	 St: c0349000 Sz: 4096 	 Sm: 0 	 T: memcpy_h2d(1.758947)
F:  2572861----T:  2575466 	 St: c034a000 Sz: 4096 	 Sm: 0 	 T: memcpy_h2d(1.758947)
F:  2575466----T:  2578071 	 St: c034b000 Sz: 4096 	 Sm: 0 	 T: memcpy_h2d(1.758947)
F:  2578071----T:  2580676 	 St: c034c000 Sz: 4096 	 Sm: 0 	 T: memcpy_h2d(1.758947)
F:  2580676----T:  2583281 	 St: c034d000 Sz: 4096 	 Sm: 0 	 T: memcpy_h2d(1.758947)
F:  2583281----T:  2585886 	 St: c034e000 Sz: 4096 	 Sm: 0 	 T: memcpy_h2d(1.758947)
F:  2585886----T:  2588491 	 St: c034f000 Sz: 4096 	 Sm: 0 	 T: memcpy_h2d(1.758947)
F:  2588491----T:  2591096 	 St: c0350000 Sz: 4096 	 Sm: 0 	 T: memcpy_h2d(1.758947)
F:  2591096----T:  2593701 	 St: c0351000 Sz: 4096 	 Sm: 0 	 T: memcpy_h2d(1.758947)
F:  2593701----T:  2596306 	 St: c0352000 Sz: 4096 	 Sm: 0 	 T: memcpy_h2d(1.758947)
F:  2596306----T:  2598911 	 St: c0353000 Sz: 4096 	 Sm: 0 	 T: memcpy_h2d(1.758947)
F:  2598911----T:  2601516 	 St: c0354000 Sz: 4096 	 Sm: 0 	 T: memcpy_h2d(1.758947)
F:  2601516----T:  2604121 	 St: c0355000 Sz: 4096 	 Sm: 0 	 T: memcpy_h2d(1.758947)
F:  2604121----T:  2606726 	 St: c0356000 Sz: 4096 	 Sm: 0 	 T: memcpy_h2d(1.758947)
F:  2606726----T:  2609331 	 St: c0357000 Sz: 4096 	 Sm: 0 	 T: memcpy_h2d(1.758947)
F:  2609331----T:  2611936 	 St: c0358000 Sz: 4096 	 Sm: 0 	 T: memcpy_h2d(1.758947)
F:  2611936----T:  2614541 	 St: c0359000 Sz: 4096 	 Sm: 0 	 T: memcpy_h2d(1.758947)
F:  2614541----T:  2617146 	 St: c01f4000 Sz: 4096 	 Sm: 0 	 T: memcpy_h2d(1.758947)
F:  2617146----T:  2619751 	 St: c035a000 Sz: 4096 	 Sm: 0 	 T: memcpy_h2d(1.758947)
F:  2619751----T:  2622356 	 St: c01f5000 Sz: 4096 	 Sm: 0 	 T: memcpy_h2d(1.758947)
F:  2622356----T:  2624961 	 St: c01f6000 Sz: 4096 	 Sm: 0 	 T: memcpy_h2d(1.758947)
F:  2624961----T:  2627566 	 St: c01f7000 Sz: 4096 	 Sm: 0 	 T: memcpy_h2d(1.758947)
F:  2627566----T:  2630171 	 St: c01f8000 Sz: 4096 	 Sm: 0 	 T: memcpy_h2d(1.758947)
F:  2630171----T:  2632776 	 St: c01f9000 Sz: 4096 	 Sm: 0 	 T: memcpy_h2d(1.758947)
F:  2632776----T:  2635381 	 St: c01fa000 Sz: 4096 	 Sm: 0 	 T: memcpy_h2d(1.758947)
F:  2635381----T:  2637986 	 St: c01fb000 Sz: 4096 	 Sm: 0 	 T: memcpy_h2d(1.758947)
F:  2637986----T:  2640591 	 St: c01fc000 Sz: 4096 	 Sm: 0 	 T: memcpy_h2d(1.758947)
F:  2640591----T:  2643196 	 St: c01fd000 Sz: 4096 	 Sm: 0 	 T: memcpy_h2d(1.758947)
F:  2643196----T:  2645801 	 St: c01fe000 Sz: 4096 	 Sm: 0 	 T: memcpy_h2d(1.758947)
F:  2645801----T:  2648406 	 St: c01ff000 Sz: 4096 	 Sm: 0 	 T: memcpy_h2d(1.758947)
F:  2648406----T:  2651011 	 St: c0200000 Sz: 4096 	 Sm: 0 	 T: memcpy_h2d(1.758947)
F:  2651011----T:  2653616 	 St: c0201000 Sz: 4096 	 Sm: 0 	 T: memcpy_h2d(1.758947)
F:  2653616----T:  2656221 	 St: c0202000 Sz: 4096 	 Sm: 0 	 T: memcpy_h2d(1.758947)
F:  2656221----T:  2658826 	 St: c0203000 Sz: 4096 	 Sm: 0 	 T: memcpy_h2d(1.758947)
F:  2658826----T:  2661431 	 St: c0204000 Sz: 4096 	 Sm: 0 	 T: memcpy_h2d(1.758947)
F:  2661431----T:  2664036 	 St: c0205000 Sz: 4096 	 Sm: 0 	 T: memcpy_h2d(1.758947)
F:  2664036----T:  2666641 	 St: c0206000 Sz: 4096 	 Sm: 0 	 T: memcpy_h2d(1.758947)
F:  2666641----T:  2669246 	 St: c0207000 Sz: 4096 	 Sm: 0 	 T: memcpy_h2d(1.758947)
F:  2669246----T:  2671851 	 St: c0208000 Sz: 4096 	 Sm: 0 	 T: memcpy_h2d(1.758947)
F:  2671851----T:  2674456 	 St: c0209000 Sz: 4096 	 Sm: 0 	 T: memcpy_h2d(1.758947)
F:  2674456----T:  2677061 	 St: c020a000 Sz: 4096 	 Sm: 0 	 T: memcpy_h2d(1.758947)
F:  2677061----T:  2679666 	 St: c020b000 Sz: 4096 	 Sm: 0 	 T: memcpy_h2d(1.758947)
F:  2679666----T:  2682271 	 St: c020c000 Sz: 4096 	 Sm: 0 	 T: memcpy_h2d(1.758947)
F:  2682271----T:  2684876 	 St: c020d000 Sz: 4096 	 Sm: 0 	 T: memcpy_h2d(1.758947)
F:  2684876----T:  2687481 	 St: c020e000 Sz: 4096 	 Sm: 0 	 T: memcpy_h2d(1.758947)
F:  2687481----T:  2690086 	 St: c020f000 Sz: 4096 	 Sm: 0 	 T: memcpy_h2d(1.758947)
F:  2690086----T:  2692691 	 St: c0210000 Sz: 4096 	 Sm: 0 	 T: memcpy_h2d(1.758947)
F:  2692691----T:  2695296 	 St: c0211000 Sz: 4096 	 Sm: 0 	 T: memcpy_h2d(1.758947)
F:  2695296----T:  2697901 	 St: c0212000 Sz: 4096 	 Sm: 0 	 T: memcpy_h2d(1.758947)
F:  2697901----T:  2700506 	 St: c0213000 Sz: 4096 	 Sm: 0 	 T: memcpy_h2d(1.758947)
F:  2700506----T:  2703111 	 St: c0214000 Sz: 4096 	 Sm: 0 	 T: memcpy_h2d(1.758947)
F:  2703111----T:  2705716 	 St: c0215000 Sz: 4096 	 Sm: 0 	 T: memcpy_h2d(1.758947)
F:  2705716----T:  2708321 	 St: c0216000 Sz: 4096 	 Sm: 0 	 T: memcpy_h2d(1.758947)
F:  2708321----T:  2710926 	 St: c0217000 Sz: 4096 	 Sm: 0 	 T: memcpy_h2d(1.758947)
F:  2710926----T:  2713531 	 St: c0218000 Sz: 4096 	 Sm: 0 	 T: memcpy_h2d(1.758947)
F:  2713531----T:  2716136 	 St: c0219000 Sz: 4096 	 Sm: 0 	 T: memcpy_h2d(1.758947)
F:  2716136----T:  2718741 	 St: c021a000 Sz: 4096 	 Sm: 0 	 T: memcpy_h2d(1.758947)
F:  2718741----T:  2721346 	 St: c021b000 Sz: 4096 	 Sm: 0 	 T: memcpy_h2d(1.758947)
F:  2721346----T:  2723951 	 St: c021c000 Sz: 4096 	 Sm: 0 	 T: memcpy_h2d(1.758947)
F:  2723951----T:  2726556 	 St: c021d000 Sz: 4096 	 Sm: 0 	 T: memcpy_h2d(1.758947)
F:  2726556----T:  2729161 	 St: c021e000 Sz: 4096 	 Sm: 0 	 T: memcpy_h2d(1.758947)
F:  2729161----T:  2731766 	 St: c021f000 Sz: 4096 	 Sm: 0 	 T: memcpy_h2d(1.758947)
F:  2731766----T:  2734371 	 St: c0220000 Sz: 4096 	 Sm: 0 	 T: memcpy_h2d(1.758947)
F:  2734371----T:  2736976 	 St: c0221000 Sz: 4096 	 Sm: 0 	 T: memcpy_h2d(1.758947)
F:  2736976----T:  2739581 	 St: c0222000 Sz: 4096 	 Sm: 0 	 T: memcpy_h2d(1.758947)
F:  2739581----T:  2742186 	 St: c0223000 Sz: 4096 	 Sm: 0 	 T: memcpy_h2d(1.758947)
F:  2742186----T:  2744791 	 St: c0224000 Sz: 4096 	 Sm: 0 	 T: memcpy_h2d(1.758947)
F:  2744791----T:  2747396 	 St: c0225000 Sz: 4096 	 Sm: 0 	 T: memcpy_h2d(1.758947)
F:  2747396----T:  2750001 	 St: c0226000 Sz: 4096 	 Sm: 0 	 T: memcpy_h2d(1.758947)
F:  2750001----T:  2752606 	 St: c0227000 Sz: 4096 	 Sm: 0 	 T: memcpy_h2d(1.758947)
F:  2752606----T:  2755211 	 St: c0228000 Sz: 4096 	 Sm: 0 	 T: memcpy_h2d(1.758947)
F:  2755211----T:  2757816 	 St: c0229000 Sz: 4096 	 Sm: 0 	 T: memcpy_h2d(1.758947)
F:  2757816----T:  2760421 	 St: c022a000 Sz: 4096 	 Sm: 0 	 T: memcpy_h2d(1.758947)
F:  2760421----T:  2763026 	 St: c022b000 Sz: 4096 	 Sm: 0 	 T: memcpy_h2d(1.758947)
F:  2763026----T:  2765631 	 St: c022c000 Sz: 4096 	 Sm: 0 	 T: memcpy_h2d(1.758947)
F:  2765631----T:  2768236 	 St: c022d000 Sz: 4096 	 Sm: 0 	 T: memcpy_h2d(1.758947)
F:  2768236----T:  2770841 	 St: c022e000 Sz: 4096 	 Sm: 0 	 T: memcpy_h2d(1.758947)
F:  2770841----T:  2773446 	 St: c022f000 Sz: 4096 	 Sm: 0 	 T: memcpy_h2d(1.758947)
F:  2773446----T:  2776051 	 St: c035b000 Sz: 4096 	 Sm: 0 	 T: memcpy_h2d(1.758947)
F:  2776051----T:  2778656 	 St: c0230000 Sz: 4096 	 Sm: 0 	 T: memcpy_h2d(1.758947)
F:  2778656----T:  2781261 	 St: c035c000 Sz: 4096 	 Sm: 0 	 T: memcpy_h2d(1.758947)
F:  2781261----T:  2783866 	 St: c035d000 Sz: 4096 	 Sm: 0 	 T: memcpy_h2d(1.758947)
F:  2783866----T:  2786471 	 St: c035e000 Sz: 4096 	 Sm: 0 	 T: memcpy_h2d(1.758947)
F:  2786471----T:  2789076 	 St: c035f000 Sz: 4096 	 Sm: 0 	 T: memcpy_h2d(1.758947)
F:  2789076----T:  2791681 	 St: c0360000 Sz: 4096 	 Sm: 0 	 T: memcpy_h2d(1.758947)
F:  2791681----T:  2794286 	 St: c0361000 Sz: 4096 	 Sm: 0 	 T: memcpy_h2d(1.758947)
F:  2794286----T:  2796891 	 St: c0362000 Sz: 4096 	 Sm: 0 	 T: memcpy_h2d(1.758947)
F:  2796891----T:  2799496 	 St: c0363000 Sz: 4096 	 Sm: 0 	 T: memcpy_h2d(1.758947)
F:  2799496----T:  2802101 	 St: c0364000 Sz: 4096 	 Sm: 0 	 T: memcpy_h2d(1.758947)
F:  2802101----T:  2804706 	 St: c0365000 Sz: 4096 	 Sm: 0 	 T: memcpy_h2d(1.758947)
F:  2804706----T:  2807311 	 St: c0366000 Sz: 4096 	 Sm: 0 	 T: memcpy_h2d(1.758947)
F:  2807311----T:  2809916 	 St: c0367000 Sz: 4096 	 Sm: 0 	 T: memcpy_h2d(1.758947)
F:  2809916----T:  2812521 	 St: c0368000 Sz: 4096 	 Sm: 0 	 T: memcpy_h2d(1.758947)
F:  2812521----T:  2815126 	 St: c0369000 Sz: 4096 	 Sm: 0 	 T: memcpy_h2d(1.758947)
F:  2815126----T:  2817731 	 St: c036a000 Sz: 4096 	 Sm: 0 	 T: memcpy_h2d(1.758947)
F:  2817731----T:  2820336 	 St: c036b000 Sz: 4096 	 Sm: 0 	 T: memcpy_h2d(1.758947)
F:  2820336----T:  2822941 	 St: c036c000 Sz: 4096 	 Sm: 0 	 T: memcpy_h2d(1.758947)
F:  2822941----T:  2825546 	 St: c036d000 Sz: 4096 	 Sm: 0 	 T: memcpy_h2d(1.758947)
F:  2825546----T:  2828151 	 St: c036e000 Sz: 4096 	 Sm: 0 	 T: memcpy_h2d(1.758947)
F:  2828151----T:  2830756 	 St: c036f000 Sz: 4096 	 Sm: 0 	 T: memcpy_h2d(1.758947)
F:  2830756----T:  2833361 	 St: c0370000 Sz: 4096 	 Sm: 0 	 T: memcpy_h2d(1.758947)
F:  2833361----T:  2835966 	 St: c0371000 Sz: 4096 	 Sm: 0 	 T: memcpy_h2d(1.758947)
F:  2835966----T:  2838571 	 St: c0372000 Sz: 4096 	 Sm: 0 	 T: memcpy_h2d(1.758947)
F:  2838571----T:  2841176 	 St: c0373000 Sz: 4096 	 Sm: 0 	 T: memcpy_h2d(1.758947)
F:  2841176----T:  2843781 	 St: c0374000 Sz: 4096 	 Sm: 0 	 T: memcpy_h2d(1.758947)
F:  2843781----T:  2846386 	 St: c0375000 Sz: 4096 	 Sm: 0 	 T: memcpy_h2d(1.758947)
F:  2846386----T:  2848991 	 St: c0376000 Sz: 4096 	 Sm: 0 	 T: memcpy_h2d(1.758947)
F:  2848991----T:  2851596 	 St: c0377000 Sz: 4096 	 Sm: 0 	 T: memcpy_h2d(1.758947)
F:  2851596----T:  2854201 	 St: c0378000 Sz: 4096 	 Sm: 0 	 T: memcpy_h2d(1.758947)
F:  2854201----T:  2856806 	 St: c0379000 Sz: 4096 	 Sm: 0 	 T: memcpy_h2d(1.758947)
F:  2856806----T:  2859411 	 St: c037a000 Sz: 4096 	 Sm: 0 	 T: memcpy_h2d(1.758947)
F:  2859411----T:  2862016 	 St: c037b000 Sz: 4096 	 Sm: 0 	 T: memcpy_h2d(1.758947)
F:  2862016----T:  2864621 	 St: c037c000 Sz: 4096 	 Sm: 0 	 T: memcpy_h2d(1.758947)
F:  2864621----T:  2867226 	 St: c037d000 Sz: 4096 	 Sm: 0 	 T: memcpy_h2d(1.758947)
F:  2867226----T:  2869831 	 St: c037e000 Sz: 4096 	 Sm: 0 	 T: memcpy_h2d(1.758947)
F:  2869831----T:  2872436 	 St: c037f000 Sz: 4096 	 Sm: 0 	 T: memcpy_h2d(1.758947)
F:  2872436----T:  2875041 	 St: c0380000 Sz: 4096 	 Sm: 0 	 T: memcpy_h2d(1.758947)
F:  2875041----T:  2877646 	 St: c0381000 Sz: 4096 	 Sm: 0 	 T: memcpy_h2d(1.758947)
F:  2877646----T:  2880251 	 St: c0382000 Sz: 4096 	 Sm: 0 	 T: memcpy_h2d(1.758947)
F:  2880251----T:  2882856 	 St: c0383000 Sz: 4096 	 Sm: 0 	 T: memcpy_h2d(1.758947)
F:  2882856----T:  2885461 	 St: c0384000 Sz: 4096 	 Sm: 0 	 T: memcpy_h2d(1.758947)
F:  2885461----T:  2888066 	 St: c0385000 Sz: 4096 	 Sm: 0 	 T: memcpy_h2d(1.758947)
F:  2888066----T:  2890671 	 St: c0386000 Sz: 4096 	 Sm: 0 	 T: memcpy_h2d(1.758947)
F:  2890671----T:  2893276 	 St: c0387000 Sz: 4096 	 Sm: 0 	 T: memcpy_h2d(1.758947)
F:  2893276----T:  2895881 	 St: c0388000 Sz: 4096 	 Sm: 0 	 T: memcpy_h2d(1.758947)
F:  2895881----T:  2898486 	 St: c0389000 Sz: 4096 	 Sm: 0 	 T: memcpy_h2d(1.758947)
F:  2898486----T:  2901091 	 St: c038a000 Sz: 4096 	 Sm: 0 	 T: memcpy_h2d(1.758947)
F:  2901091----T:  2903696 	 St: c038b000 Sz: 4096 	 Sm: 0 	 T: memcpy_h2d(1.758947)
F:  2903696----T:  2906301 	 St: c038c000 Sz: 4096 	 Sm: 0 	 T: memcpy_h2d(1.758947)
F:  2906301----T:  2908906 	 St: c038d000 Sz: 4096 	 Sm: 0 	 T: memcpy_h2d(1.758947)
F:  2908906----T:  2911511 	 St: c038e000 Sz: 4096 	 Sm: 0 	 T: memcpy_h2d(1.758947)
F:  2911511----T:  2914116 	 St: c038f000 Sz: 4096 	 Sm: 0 	 T: memcpy_h2d(1.758947)
F:  2914116----T:  2916721 	 St: c0390000 Sz: 4096 	 Sm: 0 	 T: memcpy_h2d(1.758947)
F:  2916721----T:  2919326 	 St: c0391000 Sz: 4096 	 Sm: 0 	 T: memcpy_h2d(1.758947)
F:  2919326----T:  2921931 	 St: c0392000 Sz: 4096 	 Sm: 0 	 T: memcpy_h2d(1.758947)
F:  2921931----T:  2924536 	 St: c0231000 Sz: 4096 	 Sm: 0 	 T: memcpy_h2d(1.758947)
F:  2924536----T:  2927141 	 St: c0232000 Sz: 4096 	 Sm: 0 	 T: memcpy_h2d(1.758947)
F:  2927141----T:  2929746 	 St: c0233000 Sz: 4096 	 Sm: 0 	 T: memcpy_h2d(1.758947)
F:  2929746----T:  2932351 	 St: c0234000 Sz: 4096 	 Sm: 0 	 T: memcpy_h2d(1.758947)
F:  2932351----T:  2934956 	 St: c0235000 Sz: 4096 	 Sm: 0 	 T: memcpy_h2d(1.758947)
F:  2934956----T:  2937561 	 St: c0236000 Sz: 4096 	 Sm: 0 	 T: memcpy_h2d(1.758947)
F:  2937561----T:  2940166 	 St: c0237000 Sz: 4096 	 Sm: 0 	 T: memcpy_h2d(1.758947)
F:  2940166----T:  2942771 	 St: c0238000 Sz: 4096 	 Sm: 0 	 T: memcpy_h2d(1.758947)
F:  2942771----T:  2945376 	 St: c0239000 Sz: 4096 	 Sm: 0 	 T: memcpy_h2d(1.758947)
F:  2945376----T:  2947981 	 St: c023a000 Sz: 4096 	 Sm: 0 	 T: memcpy_h2d(1.758947)
F:  2947981----T:  2950586 	 St: c023b000 Sz: 4096 	 Sm: 0 	 T: memcpy_h2d(1.758947)
F:  2950586----T:  2953191 	 St: c023c000 Sz: 4096 	 Sm: 0 	 T: memcpy_h2d(1.758947)
F:  2953191----T:  2955796 	 St: c023d000 Sz: 4096 	 Sm: 0 	 T: memcpy_h2d(1.758947)
F:  2955796----T:  2958401 	 St: c023e000 Sz: 4096 	 Sm: 0 	 T: memcpy_h2d(1.758947)
F:  2958401----T:  2961006 	 St: c023f000 Sz: 4096 	 Sm: 0 	 T: memcpy_h2d(1.758947)
F:  2961006----T:  2963611 	 St: c0240000 Sz: 4096 	 Sm: 0 	 T: memcpy_h2d(1.758947)
F:  2963611----T:  2966216 	 St: c0241000 Sz: 4096 	 Sm: 0 	 T: memcpy_h2d(1.758947)
F:  2966216----T:  2968821 	 St: c0242000 Sz: 4096 	 Sm: 0 	 T: memcpy_h2d(1.758947)
F:  2968821----T:  2971426 	 St: c0243000 Sz: 4096 	 Sm: 0 	 T: memcpy_h2d(1.758947)
F:  2971426----T:  2974031 	 St: c0244000 Sz: 4096 	 Sm: 0 	 T: memcpy_h2d(1.758947)
F:  2974031----T:  2976636 	 St: c0245000 Sz: 4096 	 Sm: 0 	 T: memcpy_h2d(1.758947)
F:  2976636----T:  2979241 	 St: c0246000 Sz: 4096 	 Sm: 0 	 T: memcpy_h2d(1.758947)
F:  2979241----T:  2981846 	 St: c0247000 Sz: 4096 	 Sm: 0 	 T: memcpy_h2d(1.758947)
F:  2981846----T:  2984451 	 St: c0248000 Sz: 4096 	 Sm: 0 	 T: memcpy_h2d(1.758947)
F:  2984451----T:  2987056 	 St: c0249000 Sz: 4096 	 Sm: 0 	 T: memcpy_h2d(1.758947)
F:  2987056----T:  2989661 	 St: c024a000 Sz: 4096 	 Sm: 0 	 T: memcpy_h2d(1.758947)
F:  2989661----T:  2992266 	 St: c024b000 Sz: 4096 	 Sm: 0 	 T: memcpy_h2d(1.758947)
F:  2992266----T:  2994871 	 St: c024c000 Sz: 4096 	 Sm: 0 	 T: memcpy_h2d(1.758947)
F:  2994871----T:  2997476 	 St: c024d000 Sz: 4096 	 Sm: 0 	 T: memcpy_h2d(1.758947)
F:  2997476----T:  3000081 	 St: c024e000 Sz: 4096 	 Sm: 0 	 T: memcpy_h2d(1.758947)
F:  3000081----T:  3002686 	 St: c024f000 Sz: 4096 	 Sm: 0 	 T: memcpy_h2d(1.758947)
F:  3002686----T:  3005291 	 St: c0250000 Sz: 4096 	 Sm: 0 	 T: memcpy_h2d(1.758947)
F:  3005291----T:  3007896 	 St: c0251000 Sz: 4096 	 Sm: 0 	 T: memcpy_h2d(1.758947)
F:  3007896----T:  3010501 	 St: c0252000 Sz: 4096 	 Sm: 0 	 T: memcpy_h2d(1.758947)
F:  3010501----T:  3013106 	 St: c0253000 Sz: 4096 	 Sm: 0 	 T: memcpy_h2d(1.758947)
F:  3013106----T:  3015711 	 St: c0254000 Sz: 4096 	 Sm: 0 	 T: memcpy_h2d(1.758947)
F:  3015711----T:  3018316 	 St: c0255000 Sz: 4096 	 Sm: 0 	 T: memcpy_h2d(1.758947)
F:  3018316----T:  3020921 	 St: c0256000 Sz: 4096 	 Sm: 0 	 T: memcpy_h2d(1.758947)
F:  3020921----T:  3023526 	 St: c0257000 Sz: 4096 	 Sm: 0 	 T: memcpy_h2d(1.758947)
F:  3023526----T:  3026131 	 St: c0258000 Sz: 4096 	 Sm: 0 	 T: memcpy_h2d(1.758947)
F:  3026131----T:  3028736 	 St: c0259000 Sz: 4096 	 Sm: 0 	 T: memcpy_h2d(1.758947)
F:  3028736----T:  3031341 	 St: c025a000 Sz: 4096 	 Sm: 0 	 T: memcpy_h2d(1.758947)
F:  3031341----T:  3033946 	 St: c025b000 Sz: 4096 	 Sm: 0 	 T: memcpy_h2d(1.758947)
F:  3033946----T:  3036551 	 St: c025c000 Sz: 4096 	 Sm: 0 	 T: memcpy_h2d(1.758947)
F:  3036551----T:  3039156 	 St: c025d000 Sz: 4096 	 Sm: 0 	 T: memcpy_h2d(1.758947)
F:  3039156----T:  3041761 	 St: c025e000 Sz: 4096 	 Sm: 0 	 T: memcpy_h2d(1.758947)
F:  3041761----T:  3044366 	 St: c025f000 Sz: 4096 	 Sm: 0 	 T: memcpy_h2d(1.758947)
F:  3044366----T:  3046971 	 St: c0260000 Sz: 4096 	 Sm: 0 	 T: memcpy_h2d(1.758947)
F:  3046971----T:  3049576 	 St: c0261000 Sz: 4096 	 Sm: 0 	 T: memcpy_h2d(1.758947)
F:  3049576----T:  3052181 	 St: c0262000 Sz: 4096 	 Sm: 0 	 T: memcpy_h2d(1.758947)
F:  3052181----T:  3054786 	 St: c0263000 Sz: 4096 	 Sm: 0 	 T: memcpy_h2d(1.758947)
F:  3054786----T:  3057391 	 St: c0264000 Sz: 4096 	 Sm: 0 	 T: memcpy_h2d(1.758947)
F:  3057391----T:  3059996 	 St: c0265000 Sz: 4096 	 Sm: 0 	 T: memcpy_h2d(1.758947)
F:  3059996----T:  3062601 	 St: c0266000 Sz: 4096 	 Sm: 0 	 T: memcpy_h2d(1.758947)
F:  3063629----T:  3066234 	 St: 0 Sz: 4096 	 Sm: 0 	 T: device_sync(1.758947)
F:  3063629----T:  3071869 	 St: 0 Sz: 61440 	 Sm: 0 	 T: device_sync(5.563808)
F:  3074474----T:  3077079 	 St: 0 Sz: 4096 	 Sm: 0 	 T: device_sync(1.758947)
F:  3074474----T:  3082714 	 St: 0 Sz: 61440 	 Sm: 0 	 T: device_sync(5.563808)
F:  3085319----T:  3087924 	 St: 0 Sz: 4096 	 Sm: 0 	 T: device_sync(1.758947)
F:  3085319----T:  3101014 	 St: 0 Sz: 126976 	 Sm: 0 	 T: device_sync(10.597569)
F:  3103619----T:  3106224 	 St: 0 Sz: 4096 	 Sm: 0 	 T: device_sync(1.758947)
F:  3103619----T:  3134342 	 St: 0 Sz: 258048 	 Sm: 0 	 T: device_sync(20.744766)
F:  3136947----T:  3139552 	 St: 0 Sz: 4096 	 Sm: 0 	 T: device_sync(1.758947)
F:  3136947----T:  3197783 	 St: 0 Sz: 520192 	 Sm: 0 	 T: device_sync(41.077652)
F:  3200388----T:  3202993 	 St: 0 Sz: 4096 	 Sm: 0 	 T: device_sync(1.758947)
F:  3200388----T:  3321477 	 St: 0 Sz: 1044480 	 Sm: 0 	 T: device_sync(81.761650)
F:  3324082----T:  3326687 	 St: 0 Sz: 4096 	 Sm: 0 	 T: device_sync(1.758947)
F:  3324082----T:  3332322 	 St: 0 Sz: 61440 	 Sm: 0 	 T: device_sync(5.563808)
F:  3334927----T:  3337532 	 St: 0 Sz: 4096 	 Sm: 0 	 T: device_sync(1.758947)
F:  3334927----T:  3343167 	 St: 0 Sz: 61440 	 Sm: 0 	 T: device_sync(5.563808)
F:  3345772----T:  3348377 	 St: 0 Sz: 4096 	 Sm: 0 	 T: device_sync(1.758947)
F:  3345772----T:  3361467 	 St: 0 Sz: 126976 	 Sm: 0 	 T: device_sync(10.597569)
F:  3364072----T:  3366677 	 St: 0 Sz: 4096 	 Sm: 0 	 T: device_sync(1.758947)
F:  3364072----T:  3375560 	 St: 0 Sz: 90112 	 Sm: 0 	 T: device_sync(7.756921)
Tot_prefetch_time: 0(cycle), 0.000000(us)
Tot_kernel_exec_time: 2449712(cycle), 1654.093140(us)
Tot_kernel_exec_time_and_fault_time: 64829432(cycle), 43774.093750(us)
Tot_memcpy_h2d_time: 2438280(cycle), 1646.374023(us)
Tot_memcpy_d2h_time: 0(cycle), 0.000000(us)
Tot_memcpy_time: 2438280(cycle), 1646.374023(us)
Tot_devicesync_time: 484153(cycle), 326.909515(us)
Tot_writeback_time: 0(cycle), 0.000000(us)
Tot_memcpy_d2h_sync_wb_time: 484153(cycle), 326.909515(us)
GPGPU-Sim: *** exit detected ***
