

        *** GPGPU-Sim Simulator Version 3.2.2  [build gpgpu-sim_git-commit-1c1adf09f9d1bccf70ff97255c2b46b40ff0e800_modified_0] ***


GPGPU-Sim PTX: simulation mode 0 (can change with PTX_SIM_MODE_FUNC environment variable:
               1=functional simulation only, 0=detailed performance simulator)
GPGPU-Sim: Configuration options:

-network_mode                           1 # Interconnection network mode
-inter_config_file   config_fermi_islip.icnt # Interconnection network config file
-gpgpu_ptx_use_cuobjdump                    1 # Use cuobjdump to extract ptx and sass from binaries
-gpgpu_experimental_lib_support                    0 # Try to extract code from cuda libraries [Broken because of unknown cudaGetExportTable]
-gpgpu_ptx_convert_to_ptxplus                    0 # Convert SASS (native ISA) to ptxplus and run ptxplus
-gpgpu_ptx_force_max_capability                   20 # Force maximum compute capability
-gpgpu_ptx_inst_debug_to_file                    0 # Dump executed instructions' debug information to file
-gpgpu_ptx_inst_debug_file       inst_debug.txt # Executed instructions' debug output file
-gpgpu_ptx_inst_debug_thread_uid                    1 # Thread UID for executed instructions' debug output
-gpgpu_simd_model                       1 # 1 = post-dominator
-gpgpu_shader_core_pipeline              2048:32 # shader core pipeline config, i.e., {<nthread>:<warpsize>}
-gpgpu_tex_cache:l1  16:128:24,L:R:m:N:L,F:128:4,128:2 # per-shader L1 texture cache  (READ-ONLY) config  {<nsets>:<bsize>:<assoc>,<rep>:<wr>:<alloc>:<wr_alloc>,<mshr>:<N>:<merge>,<mq>:<rf>}
-gpgpu_const_cache:l1 128:64:2,L:R:f:N:L,A:2:64,4 # per-shader L1 constant memory cache  (READ-ONLY) config  {<nsets>:<bsize>:<assoc>,<rep>:<wr>:<alloc>:<wr_alloc>,<mshr>:<N>:<merge>,<mq>} 
-gpgpu_cache:il1     8:128:4,L:R:f:N:L,A:2:48,4 # shader L1 instruction cache config  {<nsets>:<bsize>:<assoc>,<rep>:<wr>:<alloc>:<wr_alloc>,<mshr>:<N>:<merge>,<mq>} 
-gpgpu_cache:dl1     64:128:6,L:L:m:N:H,A:128:8,8 # per-shader L1 data cache config  {<nsets>:<bsize>:<assoc>,<rep>:<wr>:<alloc>:<wr_alloc>,<mshr>:<N>:<merge>,<mq> | none}
-gpgpu_cache:dl1PrefL1                 none # per-shader L1 data cache config  {<nsets>:<bsize>:<assoc>,<rep>:<wr>:<alloc>:<wr_alloc>,<mshr>:<N>:<merge>,<mq> | none}
-gpgpu_cache:dl1PrefShared                 none # per-shader L1 data cache config  {<nsets>:<bsize>:<assoc>,<rep>:<wr>:<alloc>:<wr_alloc>,<mshr>:<N>:<merge>,<mq> | none}
-gmem_skip_L1D                          1 # global memory access skip L1D cache (implements -Xptxas -dlcm=cg, default=no skip)
-gpgpu_perfect_mem                      0 # enable perfect memory mode (no cache miss)
-n_regfile_gating_group                    4 # group of lanes that should be read/written together)
-gpgpu_clock_gated_reg_file                    0 # enable clock gated reg file for power calculations
-gpgpu_clock_gated_lanes                    0 # enable clock gated lanes for power calculations
-gpgpu_shader_registers                65536 # Number of registers per shader core. Limits number of concurrent CTAs. (default 8192)
-gpgpu_shader_cta                      32 # Maximum number of concurrent CTAs in shader (default 8)
-gpgpu_num_cta_barriers                   16 # Maximum number of named barriers per CTA (default 16)
-gpgpu_n_clusters                      28 # number of processing clusters
-gpgpu_n_cores_per_cluster                    1 # number of simd cores per cluster
-gpgpu_n_cluster_ejection_buffer_size                    8 # number of packets in ejection buffer
-gpgpu_n_ldst_response_buffer_size                    2 # number of response packets in ld/st unit ejection buffer
-gpgpu_shmem_size                   16384 # Size of shared memory per shader core (default 16kB)
-gpgpu_shmem_size                   98304 # Size of shared memory per shader core (default 16kB)
-gpgpu_shmem_size_PrefL1                16384 # Size of shared memory per shader core (default 16kB)
-gpgpu_shmem_size_PrefShared                16384 # Size of shared memory per shader core (default 16kB)
-gpgpu_shmem_num_banks                   32 # Number of banks in the shared memory in each shader core (default 16)
-gpgpu_shmem_limited_broadcast                    0 # Limit shared memory to do one broadcast per cycle (default on)
-gpgpu_shmem_warp_parts                    1 # Number of portions a warp is divided into for shared memory bank conflict check 
-gpgpu_warpdistro_shader                   -1 # Specify which shader core to collect the warp size distribution from
-gpgpu_warp_issue_shader                    0 # Specify which shader core to collect the warp issue distribution from
-gpgpu_local_mem_map                    1 # Mapping from local memory space address to simulated GPU physical address space (default = enabled)
-gpgpu_num_reg_banks                   32 # Number of register banks (default = 8)
-gpgpu_reg_bank_use_warp_id                    0 # Use warp ID in mapping registers to banks (default = off)
-gpgpu_operand_collector_num_units_sp                   20 # number of collector units (default = 4)
-gpgpu_operand_collector_num_units_sfu                    4 # number of collector units (default = 4)
-gpgpu_operand_collector_num_units_mem                    8 # number of collector units (default = 2)
-gpgpu_operand_collector_num_units_gen                    0 # number of collector units (default = 0)
-gpgpu_operand_collector_num_in_ports_sp                    4 # number of collector unit in ports (default = 1)
-gpgpu_operand_collector_num_in_ports_sfu                    1 # number of collector unit in ports (default = 1)
-gpgpu_operand_collector_num_in_ports_mem                    1 # number of collector unit in ports (default = 1)
-gpgpu_operand_collector_num_in_ports_gen                    0 # number of collector unit in ports (default = 0)
-gpgpu_operand_collector_num_out_ports_sp                    4 # number of collector unit in ports (default = 1)
-gpgpu_operand_collector_num_out_ports_sfu                    1 # number of collector unit in ports (default = 1)
-gpgpu_operand_collector_num_out_ports_mem                    1 # number of collector unit in ports (default = 1)
-gpgpu_operand_collector_num_out_ports_gen                    0 # number of collector unit in ports (default = 0)
-gpgpu_coalesce_arch                   13 # Coalescing arch (default = 13, anything else is off for now)
-gpgpu_num_sched_per_core                    2 # Number of warp schedulers per core
-gpgpu_max_insn_issue_per_warp                    2 # Max number of instructions that can be issued per warp in one cycle by scheduler
-gpgpu_simt_core_sim_order                    1 # Select the simulation order of cores in a cluster (0=Fix, 1=Round-Robin)
-gpgpu_pipeline_widths        4,1,1,4,1,1,6 # Pipeline widths ID_OC_SP,ID_OC_SFU,ID_OC_MEM,OC_EX_SP,OC_EX_SFU,OC_EX_MEM,EX_WB
-gpgpu_num_sp_units                     4 # Number of SP units (default=1)
-gpgpu_num_sfu_units                    1 # Number of SF units (default=1)
-gpgpu_num_mem_units                    1 # Number if ldst units (default=1) WARNING: not hooked up to anything
-gpgpu_scheduler                      gto # Scheduler configuration: < lrr | gto | two_level_active > If two_level_active:<num_active_warps>:<inner_prioritization>:<outer_prioritization>For complete list of prioritization values see shader.h enum scheduler_prioritization_typeDefault: gto
-gpgpu_concurrent_kernel_sm                    0 # Support concurrent kernels on a SM (default = disabled)
-tlb_size                            4096 # Number of tlb entries per SM.
-gpgpu_dram_scheduler                    1 # 0 = fifo, 1 = FR-FCFS (defaul)
-gpgpu_dram_partition_queues              8:8:8:8 # i2$:$2d:d2$:$2i
-l2_ideal                               0 # Use a ideal L2 cache that always hit
-gpgpu_cache:dl2     64:128:16,L:B:m:W:L,A:1024:1024,4:0,32 # unified banked L2 data cache config  {<nsets>:<bsize>:<assoc>,<rep>:<wr>:<alloc>:<wr_alloc>,<mshr>:<N>:<merge>,<mq>}
-gpgpu_cache:dl2_texture_only                    0 # L2 cache used for texture only
-gpgpu_n_mem                           11 # number of memory modules (e.g. memory controllers) in gpu
-gpgpu_n_sub_partition_per_mchannel                    2 # number of memory subpartition in each memory module
-gpgpu_n_mem_per_ctrlr                    1 # number of memory chips per memory controller
-gpgpu_memlatency_stat                   14 # track and display latency statistics 0x2 enables MC, 0x4 enables queue logs
-gpgpu_frfcfs_dram_sched_queue_size                   64 # 0 = unlimited (default); # entries per chip
-gpgpu_dram_return_queue_size                  116 # 0 = unlimited (default); # entries per chip
-gpgpu_dram_buswidth                    4 # default = 4 bytes (8 bytes per cycle at DDR)
-gpgpu_dram_burst_length                    8 # Burst length of each DRAM request (default = 4 data bus cycle)
-dram_data_command_freq_ratio                    4 # Frequency ratio between DRAM data bus and command bus (default = 2 times, i.e. DDR)
-gpgpu_dram_timing_opt nbk=16:CCD=2:RRD=6:RCD=12:RAS=28:RP=12:RC=40: CL=12:WL=4:CDLR=5:WR=12:nbkgrp=1:CCDL=0:RTPL=0 # DRAM timing parameters = {nbk:tCCD:tRRD:tRCD:tRAS:tRP:tRC:CL:WL:tCDLR:tWR:nbkgrp:tCCDL:tRTPL}
-rop_latency                          120 # ROP queue latency (default 85)
-dram_latency                         100 # DRAM latency (default 30)
-gpgpu_mem_addr_mapping dramid@8;00000000.00000000.00000000.00000000.0000RRRR.RRRRRRRR.RBBBCCCC.BCCSSSSS # mapping memory address to dram model {dramid@<start bit>;<memory address map>}
-gpgpu_mem_addr_test                    0 # run sweep test to check address mapping for aliased address
-gpgpu_mem_address_mask                    1 # 0 = old addressing mask, 1 = new addressing mask, 2 = new add. mask + flipped bank sel and chip sel bits
-gpuwattch_xml_file  gpuwattch_geforcegtx1080ti.xml # GPUWattch XML file
-power_simulation_enabled                    1 # Turn on power simulator (1=On, 0=Off)
-power_per_cycle_dump                    0 # Dump detailed power output each cycle
-power_trace_enabled                    0 # produce a file for the power trace (1=On, 0=Off)
-power_trace_zlevel                     6 # Compression level of the power trace output log (0=no comp, 9=highest)
-steady_power_levels_enabled                    0 # produce a file for the steady power levels (1=On, 0=Off)
-steady_state_definition                  8:4 # allowed deviation:number of samples
-gpgpu_max_cycle                        0 # terminates gpu simulation early (0 = no limit)
-gpgpu_max_insn                         0 # terminates gpu simulation early (0 = no limit)
-gpgpu_max_cta                          0 # terminates gpu simulation early (0 = no limit)
-gpgpu_runtime_stat                   500 # display runtime statistics such as dram utilization {<freq>:<flag>}
-liveness_message_freq                    1 # Minimum number of seconds between simulation liveness messages (0 = always print)
-gpgpu_flush_l1_cache                    0 # Flush L1 cache at the end of each kernel call
-gpgpu_flush_l2_cache                    0 # Flush L2 cache at the end of each kernel call
-gpgpu_deadlock_detect                    0 # Stop the simulation at deadlock (1=on (default), 0=off)
-gpgpu_ptx_instruction_classification                    0 # if enabled will classify ptx instruction types per kernel (Max 255 kernels now)
-gpgpu_ptx_sim_mode                     0 # Select between Performance (default) or Functional simulation (1)
-gpgpu_clock_domains 1481.0:2962.0:1481.0:2750.0 # Clock Domain Frequencies in MhZ {<Core Clock>:<ICNT Clock>:<L2 Clock>:<DRAM Clock>}
-gpgpu_max_concurrent_kernel                    8 # maximum kernels that can run concurrently on GPU
-gpgpu_cflog_interval                    0 # Interval between each snapshot in control flow logger
-visualizer_enabled                     0 # Turn on visualizer output (1=On, 0=Off)
-visualizer_outputfile                 NULL # Specifies the output log file for visualizer
-visualizer_zlevel                      6 # Compression level of the visualizer output log (0=no comp, 9=highest)
-trace_enabled                          0 # Turn on traces
-trace_components                    none # comma seperated list of traces to enable. Complete list found in trace_streams.tup. Default none
-trace_sampling_core                    0 # The core which is printed using CORE_DPRINTF. Default 0
-trace_sampling_memory_partition                   -1 # The memory partition which is printed using MEMPART_DPRINTF. Default -1 (i.e. all)
-gddr_size                     16.42045MB # Size of GDDR in MB/GB.(GLOBAL_HEAP_START, GLOBAL_HEAP_START + gddr_size) would be used for unmanged memory, (GLOBAL_HEAP_START + gddr_size, GLOBAL_HEAP_START + gddr_size*2) would be used for managed memory. 
-page_table_walk_latency                  100 # Average page table walk latency (in core cycle).
-eviction_policy                        1 # Select page eviction policy
-invalidate_clean                       0 # Should directly invalidate clean pages
-reserve_accessed_page_percent                   20 # Percentage of accessed pages reserved from eviction in hope that they will be accessed in next iteration.
-percentage_of_free_page_buffer                    0 # Percentage of free page buffer to trigger the page eviction.
-page_size                            4KB # GDDR page size, only 4KB/2MB avaliable.
-pcie_bandwidth                  16.0GB/s # PCI-e bandwidth per direction, in GB/s.
-enable_dma                             0 # Enable direct access to CPU memory
-multiply_dma_penalty                    2 # Oversubscription Multiplicative Penalty Factor for Adaptive DMA
-migrate_threshold                      8 # Access counter threshold for migrating the page from cpu to gpu
-sim_prof_enable                        1 # Enable gpgpu-sim profiler
-hardware_prefetch                      1 # Select gpgpu-sim hardware prefetcher
-hwprefetch_oversub                     1 # Select gpgpu-sim hardware prefetcher under over-subscription
-page_fault_latency                 66645 # Average fault latency (in core cycle).
-enable_accurate_simulation                    0 # Enable page fault functional simulation.
-enable_ptx_file_line_stats                    1 # Turn on PTX source line statistic profiling. (1 = On)
-ptx_line_stats_filename gpgpu_inst_stats.txt # Output file for PTX source line statistics.
-gpgpu_kernel_launch_latency               222150 # Kernel launch latency in cycles. Default: 0
-gpgpu_cdp_enabled                      0 # Turn on CDP
-save_embedded_ptx                      0 # saves ptx files embedded in binary as <n>.ptx
-keep                                   0 # keep intermediate files created by GPGPU-Sim when interfacing with external programs
-gpgpu_ptx_save_converted_ptxplus                    0 # Saved converted ptxplus to a file
-ptx_opcode_latency_int         4,13,4,5,145 # Opcode latencies for integers <ADD,MAX,MUL,MAD,DIV>Default 1,1,19,25,145
-ptx_opcode_latency_fp          4,13,4,5,39 # Opcode latencies for single precision floating points <ADD,MAX,MUL,MAD,DIV>Default 1,1,1,1,30
-ptx_opcode_latency_dp         8,19,8,8,330 # Opcode latencies for double precision floating points <ADD,MAX,MUL,MAD,DIV>Default 8,8,8,8,335
-ptx_opcode_initiation_int            1,2,2,2,8 # Opcode initiation intervals for integers <ADD,MAX,MUL,MAD,DIV>Default 1,1,4,4,32
-ptx_opcode_initiation_fp            1,2,1,1,4 # Opcode initiation intervals for single precision floating points <ADD,MAX,MUL,MAD,DIV>Default 1,1,1,1,5
-ptx_opcode_initiation_dp          1,2,1,1,130 # Opcode initiation intervals for double precision floating points <ADD,MAX,MUL,MAD,DIV>Default 8,8,8,8,130
-cdp_latency         7200,8000,100,12000,1600 # CDP API latency <cudaStreamCreateWithFlags, cudaGetParameterBufferV2_init_perWarp, cudaGetParameterBufferV2_perKernel, cudaLaunchDeviceV2_init_perWarp, cudaLaunchDevicV2_perKernel>Default 7200,8000,100,12000,1600
DRAM Timing Options:
nbk                                    16 # number of banks
CCD                                     2 # column to column delay
RRD                                     6 # minimal delay between activation of rows in different banks
RCD                                    12 # row to column delay
RAS                                    28 # time needed to activate row
RP                                     12 # time needed to precharge (deactivate) row
RC                                     40 # row cycle time
CDLR                                    5 # switching from write to read (changes tWTR)
WR                                     12 # last data-in to row precharge
CL                                     12 # CAS latency
WL                                      4 # Write latency
nbkgrp                                  1 # number of bank groups
CCDL                                    0 # column to column delay between accesses to different bank groups
RTPL                                    0 # read to precharge delay between accesses to different bank groups
Total number of memory sub partition = 22
addr_dec_mask[CHIP]  = 0000000000000000 	high:64 low:0
addr_dec_mask[BK]    = 0000000000007080 	high:15 low:7
addr_dec_mask[ROW]   = 000000000fff8000 	high:28 low:15
addr_dec_mask[COL]   = 0000000000000f7f 	high:12 low:0
addr_dec_mask[BURST] = 000000000000001f 	high:5 low:0
sub_partition_id_mask = 0000000000000080
GPGPU-Sim uArch: clock freqs: 1481000000.000000:2962000000.000000:1481000000.000000:2750000000.000000
GPGPU-Sim uArch: clock periods: 0.00000000067521944632:0.00000000033760972316:0.00000000067521944632:0.00000000036363636364
*** Initializing Memory Statistics ***
GPGPU-Sim uArch: interconnect node map (shaderID+MemID to icntID)
GPGPU-Sim uArch: Memory nodes ID start from index: 28
GPGPU-Sim uArch:    0   1   2   3   4   5   6
GPGPU-Sim uArch:    7   8   9  10  11  12  13
GPGPU-Sim uArch:   14  15  16  17  18  19  20
GPGPU-Sim uArch:   21  22  23  24  25  26  27
GPGPU-Sim uArch:   28  29  30  31  32  33  34
GPGPU-Sim uArch:   35  36  37  38  39  40  41
GPGPU-Sim uArch:   42  43  44  45  46  47  48
GPGPU-Sim uArch:   49
GPGPU-Sim uArch: interconnect node reverse map (icntID to shaderID+MemID)
GPGPU-Sim uArch: Memory nodes start from ID: 28
GPGPU-Sim uArch:    0   1   2   3   4   5   6
GPGPU-Sim uArch:    7   8   9  10  11  12  13
GPGPU-Sim uArch:   14  15  16  17  18  19  20
GPGPU-Sim uArch:   21  22  23  24  25  26  27
GPGPU-Sim uArch:   28  29  30  31  32  33  34
GPGPU-Sim uArch:   35  36  37  38  39  40  41
GPGPU-Sim uArch:   42  43  44  45  46  47  48
GPGPU-Sim uArch:   49
e828e378526951f16b012862363f76aa  /root/gpgpu-sim_UVMSmart/benchmarks/Managed/FDTD-2D/main
GPGPU-Sim uArch: performance model initialization complete.
GPGPU-Sim PTX: __cudaRegisterFatBinary, fat_cubin_handle = 1, filename=default
self exe links to: /root/gpgpu-sim_UVMSmart/benchmarks/Managed/FDTD-2D/main
Running md5sum using "md5sum /root/gpgpu-sim_UVMSmart/benchmarks/Managed/FDTD-2D/main "
Parsing file _cuobjdump_complete_output_5a6cRY
######### cuobjdump parser ########
## Adding new section ELF
Adding arch: sm_20
Adding identifier: default
## Adding new section ELF
Adding arch: sm_20
Adding identifier: default
## Adding new section PTX
Adding ptx filename: _cuobjdump_1.ptx
Adding arch: sm_20
Adding identifier: default
Done parsing!!!
GPGPU-Sim PTX: __cudaRegisterFunction _Z17fdtd_step3_kernelPfS_S_i : hostFun 0x0x401766, fat_cubin_handle = 1
GPGPU-Sim PTX: instruction assembly for function '_Z17fdtd_step1_kernelPfS_S_S_i'...   done.
GPGPU-Sim PTX: finding reconvergence points for '_Z17fdtd_step1_kernelPfS_S_S_i'...
GPGPU-Sim PTX: Finding dominators for '_Z17fdtd_step1_kernelPfS_S_S_i'...
GPGPU-Sim PTX: Finding immediate dominators for '_Z17fdtd_step1_kernelPfS_S_S_i'...
GPGPU-Sim PTX: Finding postdominators for '_Z17fdtd_step1_kernelPfS_S_S_i'...
GPGPU-Sim PTX: Finding immediate postdominators for '_Z17fdtd_step1_kernelPfS_S_S_i'...
GPGPU-Sim PTX: pre-decoding instructions for '_Z17fdtd_step1_kernelPfS_S_S_i'...
GPGPU-Sim PTX: reconvergence points for _Z17fdtd_step1_kernelPfS_S_S_i...
GPGPU-Sim PTX:  1 (potential) branch divergence @  PC=0x080 (_1.ptx:44) @!%p3 bra BB0_4;
GPGPU-Sim PTX:    immediate post dominator      @  PC=0x150 (_1.ptx:77) ret;
GPGPU-Sim PTX:  2 (potential) branch divergence @  PC=0x088 (_1.ptx:45) bra.uni BB0_1;
GPGPU-Sim PTX:    immediate post dominator      @  PC=0x090 (_1.ptx:48) setp.eq.s32%p4, %r2, 0;
GPGPU-Sim PTX:  3 (potential) branch divergence @  PC=0x098 (_1.ptx:49) @%p4 bra BB0_3;
GPGPU-Sim PTX:    immediate post dominator      @  PC=0x150 (_1.ptx:77) ret;
GPGPU-Sim PTX:  4 (potential) branch divergence @  PC=0x110 (_1.ptx:65) bra.uni BB0_4;
GPGPU-Sim PTX:    immediate post dominator      @  PC=0x150 (_1.ptx:77) ret;
GPGPU-Sim PTX: ... end of reconvergence points for _Z17fdtd_step1_kernelPfS_S_S_i
GPGPU-Sim PTX: ... done pre-decoding instructions for '_Z17fdtd_step1_kernelPfS_S_S_i'.
GPGPU-Sim PTX: instruction assembly for function '_Z17fdtd_step2_kernelPfS_S_i'...   done.
GPGPU-Sim PTX: finding reconvergence points for '_Z17fdtd_step2_kernelPfS_S_i'...
GPGPU-Sim PTX: Finding dominators for '_Z17fdtd_step2_kernelPfS_S_i'...
GPGPU-Sim PTX: Finding immediate dominators for '_Z17fdtd_step2_kernelPfS_S_i'...
GPGPU-Sim PTX: Finding postdominators for '_Z17fdtd_step2_kernelPfS_S_i'...
GPGPU-Sim PTX: Finding immediate postdominators for '_Z17fdtd_step2_kernelPfS_S_i'...
GPGPU-Sim PTX: pre-decoding instructions for '_Z17fdtd_step2_kernelPfS_S_i'...
GPGPU-Sim PTX: reconvergence points for _Z17fdtd_step2_kernelPfS_S_i...
GPGPU-Sim PTX:  1 (potential) branch divergence @  PC=0x1d0 (_1.ptx:109) @!%p5 bra BB1_2;
GPGPU-Sim PTX:    immediate post dominator      @  PC=0x268 (_1.ptx:132) ret;
GPGPU-Sim PTX:  2 (potential) branch divergence @  PC=0x1d8 (_1.ptx:110) bra.uni BB1_1;
GPGPU-Sim PTX:    immediate post dominator      @  PC=0x1e0 (_1.ptx:113) cvta.to.global.u64 %rd3, %rd2;
GPGPU-Sim PTX: ... end of reconvergence points for _Z17fdtd_step2_kernelPfS_S_i
GPGPU-Sim PTX: ... done pre-decoding instructions for '_Z17fdtd_step2_kernelPfS_S_i'.
GPGPU-Sim PTX: instruction assembly for function '_Z17fdtd_step3_kernelPfS_S_i'...   done.
GPGPU-Sim PTX: finding reconvergence points for '_Z17fdtd_step3_kernelPfS_S_i'...
GPGPU-Sim PTX: Finding dominators for '_Z17fdtd_step3_kernelPfS_S_i'...
GPGPU-Sim PTX: Finding immediate dominators for '_Z17fdtd_step3_kernelPfS_S_i'...
GPGPU-Sim PTX: Finding postdominators for '_Z17fdtd_step3_kernelPfS_S_i'...
GPGPU-Sim PTX: Finding immediate postdominators for '_Z17fdtd_step3_kernelPfS_S_i'...
GPGPU-Sim PTX: pre-decoding instructions for '_Z17fdtd_step3_kernelPfS_S_i'...
GPGPU-Sim PTX: reconvergence points for _Z17fdtd_step3_kernelPfS_S_i...
GPGPU-Sim PTX:  1 (potential) branch divergence @  PC=0x2e0 (_1.ptx:163) @!%p3 bra BB2_2;
GPGPU-Sim PTX:    immediate post dominator      @  PC=0x390 (_1.ptx:189) ret;
GPGPU-Sim PTX:  2 (potential) branch divergence @  PC=0x2e8 (_1.ptx:164) bra.uni BB2_1;
GPGPU-Sim PTX:    immediate post dominator      @  PC=0x2f0 (_1.ptx:167) cvta.to.global.u64 %rd4, %rd2;
GPGPU-Sim PTX: ... end of reconvergence points for _Z17fdtd_step3_kernelPfS_S_i
GPGPU-Sim PTX: ... done pre-decoding instructions for '_Z17fdtd_step3_kernelPfS_S_i'.
GPGPU-Sim PTX: finished parsing EMBEDDED .ptx file _1.ptx
Adding _cuobjdump_1.ptx with cubin handle 1
GPGPU-Sim PTX: extracting embedded .ptx to temporary file "_ptx_gpXwUk"
Running: cat _ptx_gpXwUk | sed 's/.version 1.5/.version 1.4/' | sed 's/, texmode_independent//' | sed 's/\(\.extern \.const\[1\] .b8 \w\+\)\[\]/\1\[1\]/' | sed 's/const\[.\]/const\[0\]/g' > _ptx2_zaGRXG
GPGPU-Sim PTX: generating ptxinfo using "$CUDA_INSTALL_PATH/bin/ptxas --gpu-name=sm_20 -v _ptx2_zaGRXG --output-file  /dev/null 2> _ptx_gpXwUkinfo"
GPGPU-Sim PTX: Kernel '_Z17fdtd_step2_kernelPfS_S_i' : regs=10, lmem=0, smem=0, cmem=60
GPGPU-Sim PTX: Kernel '_Z17fdtd_step1_kernelPfS_S_S_i' : regs=10, lmem=0, smem=0, cmem=68
GPGPU-Sim PTX: Kernel '_Z17fdtd_step3_kernelPfS_S_i' : regs=12, lmem=0, smem=0, cmem=64
GPGPU-Sim PTX: removing ptxinfo using "rm -f _ptx_gpXwUk _ptx2_zaGRXG _ptx_gpXwUkinfo"
GPGPU-Sim PTX: loading globals with explicit initializers... 
GPGPU-Sim PTX: finished loading globals (0 bytes total).
GPGPU-Sim PTX: loading constants with explicit initializers...  done.
GPGPU-Sim PTX: __cudaRegisterFunction _Z17fdtd_step2_kernelPfS_S_i : hostFun 0x0x40167f, fat_cubin_handle = 1
GPGPU-Sim PTX: __cudaRegisterFunction _Z17fdtd_step1_kernelPfS_S_S_i : hostFun 0x0x40158c, fat_cubin_handle = 1

GPGPU-Sim PTX: cudaLaunch for 0x0x40158c (mode=performance simulation) on stream 0
GPGPU-Sim PTX: pushing kernel '_Z17fdtd_step1_kernelPfS_S_S_i' to stream 0, gridDim= (38,150,1) blockDim = (32,8,1) 
GPGPU-Sim uArch: Shader 1 bind to kernel 1 '_Z17fdtd_step1_kernelPfS_S_S_i'
GPGPU-Sim uArch: CTA/core = 8, limited by: threads
GPGPU-Sim uArch: Shader 2 bind to kernel 1 '_Z17fdtd_step1_kernelPfS_S_S_i'
GPGPU-Sim uArch: Shader 3 bind to kernel 1 '_Z17fdtd_step1_kernelPfS_S_S_i'
GPGPU-Sim uArch: Shader 4 bind to kernel 1 '_Z17fdtd_step1_kernelPfS_S_S_i'
GPGPU-Sim uArch: Shader 5 bind to kernel 1 '_Z17fdtd_step1_kernelPfS_S_S_i'
GPGPU-Sim uArch: Shader 6 bind to kernel 1 '_Z17fdtd_step1_kernelPfS_S_S_i'
GPGPU-Sim uArch: Shader 7 bind to kernel 1 '_Z17fdtd_step1_kernelPfS_S_S_i'
GPGPU-Sim uArch: Shader 8 bind to kernel 1 '_Z17fdtd_step1_kernelPfS_S_S_i'
GPGPU-Sim uArch: Shader 9 bind to kernel 1 '_Z17fdtd_step1_kernelPfS_S_S_i'
GPGPU-Sim uArch: Shader 10 bind to kernel 1 '_Z17fdtd_step1_kernelPfS_S_S_i'
GPGPU-Sim uArch: Shader 11 bind to kernel 1 '_Z17fdtd_step1_kernelPfS_S_S_i'
GPGPU-Sim uArch: Shader 12 bind to kernel 1 '_Z17fdtd_step1_kernelPfS_S_S_i'
GPGPU-Sim uArch: Shader 13 bind to kernel 1 '_Z17fdtd_step1_kernelPfS_S_S_i'
GPGPU-Sim uArch: Shader 14 bind to kernel 1 '_Z17fdtd_step1_kernelPfS_S_S_i'
GPGPU-Sim uArch: Shader 15 bind to kernel 1 '_Z17fdtd_step1_kernelPfS_S_S_i'
GPGPU-Sim uArch: Shader 16 bind to kernel 1 '_Z17fdtd_step1_kernelPfS_S_S_i'
GPGPU-Sim uArch: Shader 17 bind to kernel 1 '_Z17fdtd_step1_kernelPfS_S_S_i'
GPGPU-Sim uArch: Shader 18 bind to kernel 1 '_Z17fdtd_step1_kernelPfS_S_S_i'
GPGPU-Sim uArch: Shader 19 bind to kernel 1 '_Z17fdtd_step1_kernelPfS_S_S_i'
GPGPU-Sim uArch: Shader 20 bind to kernel 1 '_Z17fdtd_step1_kernelPfS_S_S_i'
GPGPU-Sim uArch: Shader 21 bind to kernel 1 '_Z17fdtd_step1_kernelPfS_S_S_i'
GPGPU-Sim uArch: Shader 22 bind to kernel 1 '_Z17fdtd_step1_kernelPfS_S_S_i'
GPGPU-Sim uArch: Shader 23 bind to kernel 1 '_Z17fdtd_step1_kernelPfS_S_S_i'
GPGPU-Sim uArch: Shader 24 bind to kernel 1 '_Z17fdtd_step1_kernelPfS_S_S_i'
GPGPU-Sim uArch: Shader 25 bind to kernel 1 '_Z17fdtd_step1_kernelPfS_S_S_i'
GPGPU-Sim uArch: Shader 26 bind to kernel 1 '_Z17fdtd_step1_kernelPfS_S_S_i'
GPGPU-Sim uArch: Shader 27 bind to kernel 1 '_Z17fdtd_step1_kernelPfS_S_S_i'
GPGPU-Sim uArch: Shader 0 bind to kernel 1 '_Z17fdtd_step1_kernelPfS_S_S_i'
GPGPU-Sim uArch: Shader 3 bind to kernel 1 '_Z17fdtd_step1_kernelPfS_S_S_i'
GPGPU-Sim uArch: Shader 5 bind to kernel 1 '_Z17fdtd_step1_kernelPfS_S_S_i'
GPGPU-Sim uArch: Shader 6 bind to kernel 1 '_Z17fdtd_step1_kernelPfS_S_S_i'
GPGPU-Sim uArch: Shader 9 bind to kernel 1 '_Z17fdtd_step1_kernelPfS_S_S_i'
GPGPU-Sim uArch: Shader 13 bind to kernel 1 '_Z17fdtd_step1_kernelPfS_S_S_i'
GPGPU-Sim uArch: Shader 16 bind to kernel 1 '_Z17fdtd_step1_kernelPfS_S_S_i'
GPGPU-Sim uArch: Shader 17 bind to kernel 1 '_Z17fdtd_step1_kernelPfS_S_S_i'
GPGPU-Sim uArch: Shader 19 bind to kernel 1 '_Z17fdtd_step1_kernelPfS_S_S_i'
GPGPU-Sim uArch: Shader 21 bind to kernel 1 '_Z17fdtd_step1_kernelPfS_S_S_i'
GPGPU-Sim uArch: Shader 22 bind to kernel 1 '_Z17fdtd_step1_kernelPfS_S_S_i'
GPGPU-Sim uArch: Shader 24 bind to kernel 1 '_Z17fdtd_step1_kernelPfS_S_S_i'
GPGPU-Sim uArch: Shader 26 bind to kernel 1 '_Z17fdtd_step1_kernelPfS_S_S_i'
GPGPU-Sim uArch: Shader 27 bind to kernel 1 '_Z17fdtd_step1_kernelPfS_S_S_i'
GPGPU-Sim uArch: Shader 11 bind to kernel 1 '_Z17fdtd_step1_kernelPfS_S_S_i'
GPGPU-Sim uArch: Shader 14 bind to kernel 1 '_Z17fdtd_step1_kernelPfS_S_S_i'
GPGPU-Sim uArch: Shader 15 bind to kernel 1 '_Z17fdtd_step1_kernelPfS_S_S_i'
GPGPU-Sim uArch: Shader 16 bind to kernel 1 '_Z17fdtd_step1_kernelPfS_S_S_i'
GPGPU-Sim uArch: Shader 23 bind to kernel 1 '_Z17fdtd_step1_kernelPfS_S_S_i'
GPGPU-Sim uArch: Shader 25 bind to kernel 1 '_Z17fdtd_step1_kernelPfS_S_S_i'
GPGPU-Sim uArch: Shader 26 bind to kernel 1 '_Z17fdtd_step1_kernelPfS_S_S_i'
GPGPU-Sim uArch: Shader 0 bind to kernel 1 '_Z17fdtd_step1_kernelPfS_S_S_i'
GPGPU-Sim uArch: Shader 1 bind to kernel 1 '_Z17fdtd_step1_kernelPfS_S_S_i'
GPGPU-Sim uArch: Shader 2 bind to kernel 1 '_Z17fdtd_step1_kernelPfS_S_S_i'
GPGPU-Sim uArch: Shader 3 bind to kernel 1 '_Z17fdtd_step1_kernelPfS_S_S_i'
GPGPU-Sim uArch: Shader 4 bind to kernel 1 '_Z17fdtd_step1_kernelPfS_S_S_i'
GPGPU-Sim uArch: Shader 7 bind to kernel 1 '_Z17fdtd_step1_kernelPfS_S_S_i'
GPGPU-Sim uArch: Shader 9 bind to kernel 1 '_Z17fdtd_step1_kernelPfS_S_S_i'
GPGPU-Sim uArch: Shader 12 bind to kernel 1 '_Z17fdtd_step1_kernelPfS_S_S_i'
GPGPU-Sim uArch: Shader 13 bind to kernel 1 '_Z17fdtd_step1_kernelPfS_S_S_i'
GPGPU-Sim uArch: Shader 14 bind to kernel 1 '_Z17fdtd_step1_kernelPfS_S_S_i'
GPGPU-Sim uArch: Shader 17 bind to kernel 1 '_Z17fdtd_step1_kernelPfS_S_S_i'
GPGPU-Sim uArch: Shader 18 bind to kernel 1 '_Z17fdtd_step1_kernelPfS_S_S_i'
GPGPU-Sim uArch: Shader 20 bind to kernel 1 '_Z17fdtd_step1_kernelPfS_S_S_i'
GPGPU-Sim uArch: Shader 21 bind to kernel 1 '_Z17fdtd_step1_kernelPfS_S_S_i'
GPGPU-Sim uArch: Shader 22 bind to kernel 1 '_Z17fdtd_step1_kernelPfS_S_S_i'
GPGPU-Sim uArch: Shader 23 bind to kernel 1 '_Z17fdtd_step1_kernelPfS_S_S_i'
GPGPU-Sim uArch: Shader 24 bind to kernel 1 '_Z17fdtd_step1_kernelPfS_S_S_i'
GPGPU-Sim uArch: Shader 25 bind to kernel 1 '_Z17fdtd_step1_kernelPfS_S_S_i'
GPGPU-Sim uArch: Shader 26 bind to kernel 1 '_Z17fdtd_step1_kernelPfS_S_S_i'
GPGPU-Sim uArch: Shader 27 bind to kernel 1 '_Z17fdtd_step1_kernelPfS_S_S_i'
GPGPU-Sim uArch: Shader 0 bind to kernel 1 '_Z17fdtd_step1_kernelPfS_S_S_i'
GPGPU-Sim uArch: Shader 1 bind to kernel 1 '_Z17fdtd_step1_kernelPfS_S_S_i'
GPGPU-Sim uArch: Shader 2 bind to kernel 1 '_Z17fdtd_step1_kernelPfS_S_S_i'
GPGPU-Sim uArch: Shader 3 bind to kernel 1 '_Z17fdtd_step1_kernelPfS_S_S_i'
GPGPU-Sim uArch: Shader 4 bind to kernel 1 '_Z17fdtd_step1_kernelPfS_S_S_i'
GPGPU-Sim uArch: Shader 5 bind to kernel 1 '_Z17fdtd_step1_kernelPfS_S_S_i'
GPGPU-Sim uArch: Shader 6 bind to kernel 1 '_Z17fdtd_step1_kernelPfS_S_S_i'
GPGPU-Sim uArch: Shader 7 bind to kernel 1 '_Z17fdtd_step1_kernelPfS_S_S_i'
GPGPU-Sim uArch: Shader 8 bind to kernel 1 '_Z17fdtd_step1_kernelPfS_S_S_i'
GPGPU-Sim uArch: Shader 9 bind to kernel 1 '_Z17fdtd_step1_kernelPfS_S_S_i'
GPGPU-Sim uArch: Shader 10 bind to kernel 1 '_Z17fdtd_step1_kernelPfS_S_S_i'
GPGPU-Sim uArch: Shader 11 bind to kernel 1 '_Z17fdtd_step1_kernelPfS_S_S_i'
GPGPU-Sim uArch: Shader 12 bind to kernel 1 '_Z17fdtd_step1_kernelPfS_S_S_i'
GPGPU-Sim uArch: Shader 13 bind to kernel 1 '_Z17fdtd_step1_kernelPfS_S_S_i'
GPGPU-Sim uArch: Shader 14 bind to kernel 1 '_Z17fdtd_step1_kernelPfS_S_S_i'
GPGPU-Sim uArch: Shader 15 bind to kernel 1 '_Z17fdtd_step1_kernelPfS_S_S_i'
GPGPU-Sim uArch: Shader 16 bind to kernel 1 '_Z17fdtd_step1_kernelPfS_S_S_i'
GPGPU-Sim uArch: Shader 17 bind to kernel 1 '_Z17fdtd_step1_kernelPfS_S_S_i'
GPGPU-Sim uArch: Shader 18 bind to kernel 1 '_Z17fdtd_step1_kernelPfS_S_S_i'
GPGPU-Sim uArch: Shader 19 bind to kernel 1 '_Z17fdtd_step1_kernelPfS_S_S_i'
GPGPU-Sim uArch: Shader 18 bind to kernel 1 '_Z17fdtd_step1_kernelPfS_S_S_i'
GPGPU-Sim uArch: Shader 20 bind to kernel 1 '_Z17fdtd_step1_kernelPfS_S_S_i'
GPGPU-Sim uArch: Shader 21 bind to kernel 1 '_Z17fdtd_step1_kernelPfS_S_S_i'
GPGPU-Sim uArch: Shader 22 bind to kernel 1 '_Z17fdtd_step1_kernelPfS_S_S_i'
GPGPU-Sim uArch: Shader 25 bind to kernel 1 '_Z17fdtd_step1_kernelPfS_S_S_i'
GPGPU-Sim uArch: Shader 1 bind to kernel 1 '_Z17fdtd_step1_kernelPfS_S_S_i'
GPGPU-Sim uArch: Shader 3 bind to kernel 1 '_Z17fdtd_step1_kernelPfS_S_S_i'
GPGPU-Sim uArch: Shader 4 bind to kernel 1 '_Z17fdtd_step1_kernelPfS_S_S_i'
GPGPU-Sim uArch: Shader 13 bind to kernel 1 '_Z17fdtd_step1_kernelPfS_S_S_i'
GPGPU-Sim uArch: Shader 18 bind to kernel 1 '_Z17fdtd_step1_kernelPfS_S_S_i'
GPGPU-Sim uArch: Shader 22 bind to kernel 1 '_Z17fdtd_step1_kernelPfS_S_S_i'
GPGPU-Sim uArch: Shader 24 bind to kernel 1 '_Z17fdtd_step1_kernelPfS_S_S_i'
GPGPU-Sim uArch: Shader 26 bind to kernel 1 '_Z17fdtd_step1_kernelPfS_S_S_i'
GPGPU-Sim uArch: Shader 27 bind to kernel 1 '_Z17fdtd_step1_kernelPfS_S_S_i'
GPGPU-Sim uArch: Shader 1 bind to kernel 1 '_Z17fdtd_step1_kernelPfS_S_S_i'
GPGPU-Sim uArch: Shader 2 bind to kernel 1 '_Z17fdtd_step1_kernelPfS_S_S_i'
GPGPU-Sim uArch: Shader 4 bind to kernel 1 '_Z17fdtd_step1_kernelPfS_S_S_i'
GPGPU-Sim uArch: Shader 5 bind to kernel 1 '_Z17fdtd_step1_kernelPfS_S_S_i'
GPGPU-Sim uArch: Shader 11 bind to kernel 1 '_Z17fdtd_step1_kernelPfS_S_S_i'
GPGPU-Sim uArch: Shader 13 bind to kernel 1 '_Z17fdtd_step1_kernelPfS_S_S_i'
Destroy streams for kernel 1: size 0
kernel_name = _Z17fdtd_step1_kernelPfS_S_S_i 
kernel_launch_uid = 1 
gpu_sim_cycle = 1624139
gpu_sim_insn = 49297200
gpu_ipc =      30.3528
gpu_tot_sim_cycle = 1846289
gpu_tot_sim_insn = 49297200
gpu_tot_ipc =      26.7007
gpu_tot_issued_cta = 5700
max_total_param_size = 0
gpu_stall_dramfull = 232830
gpu_stall_icnt2sh    = 727095
partiton_reqs_in_parallel = 35498228
partiton_reqs_in_parallel_total    = 0
partiton_level_parallism =      21.8566
partiton_level_parallism_total  =      19.2268
partiton_reqs_in_parallel_util = 35498228
partiton_reqs_in_parallel_util_total    = 0
gpu_sim_cycle_parition_util = 1623448
gpu_tot_sim_cycle_parition_util    = 0
partiton_level_parallism_util =      21.8659
partiton_level_parallism_util_total  =      21.8659
partiton_replys_in_parallel = 271199
partiton_replys_in_parallel_total    = 0
L2_BW  =      15.8270 GB/Sec
L2_BW_total  =      13.9227 GB/Sec
gpu_total_sim_rate=26138

========= Core cache stats =========
L1I_cache:
	L1I_total_cache_accesses = 866248
	L1I_total_cache_misses = 1981
	L1I_total_cache_miss_rate = 0.0023
	L1I_total_cache_pending_hits = 0
	L1I_total_cache_reservation_fails = 6846
L1D_cache:
	L1D_cache_core[0]: Access = 0, Miss = 0, Miss_rate = -nan, Pending_hits = 0, Reservation_fails = 0
	L1D_cache_core[1]: Access = 0, Miss = 0, Miss_rate = -nan, Pending_hits = 0, Reservation_fails = 0
	L1D_cache_core[2]: Access = 0, Miss = 0, Miss_rate = -nan, Pending_hits = 0, Reservation_fails = 0
	L1D_cache_core[3]: Access = 0, Miss = 0, Miss_rate = -nan, Pending_hits = 0, Reservation_fails = 0
	L1D_cache_core[4]: Access = 0, Miss = 0, Miss_rate = -nan, Pending_hits = 0, Reservation_fails = 0
	L1D_cache_core[5]: Access = 0, Miss = 0, Miss_rate = -nan, Pending_hits = 0, Reservation_fails = 0
	L1D_cache_core[6]: Access = 0, Miss = 0, Miss_rate = -nan, Pending_hits = 0, Reservation_fails = 0
	L1D_cache_core[7]: Access = 0, Miss = 0, Miss_rate = -nan, Pending_hits = 0, Reservation_fails = 0
	L1D_cache_core[8]: Access = 0, Miss = 0, Miss_rate = -nan, Pending_hits = 0, Reservation_fails = 0
	L1D_cache_core[9]: Access = 0, Miss = 0, Miss_rate = -nan, Pending_hits = 0, Reservation_fails = 0
	L1D_cache_core[10]: Access = 0, Miss = 0, Miss_rate = -nan, Pending_hits = 0, Reservation_fails = 0
	L1D_cache_core[11]: Access = 0, Miss = 0, Miss_rate = -nan, Pending_hits = 0, Reservation_fails = 0
	L1D_cache_core[12]: Access = 0, Miss = 0, Miss_rate = -nan, Pending_hits = 0, Reservation_fails = 0
	L1D_cache_core[13]: Access = 0, Miss = 0, Miss_rate = -nan, Pending_hits = 0, Reservation_fails = 0
	L1D_cache_core[14]: Access = 0, Miss = 0, Miss_rate = -nan, Pending_hits = 0, Reservation_fails = 0
	L1D_cache_core[15]: Access = 0, Miss = 0, Miss_rate = -nan, Pending_hits = 0, Reservation_fails = 0
	L1D_cache_core[16]: Access = 0, Miss = 0, Miss_rate = -nan, Pending_hits = 0, Reservation_fails = 0
	L1D_cache_core[17]: Access = 0, Miss = 0, Miss_rate = -nan, Pending_hits = 0, Reservation_fails = 0
	L1D_cache_core[18]: Access = 0, Miss = 0, Miss_rate = -nan, Pending_hits = 0, Reservation_fails = 0
	L1D_cache_core[19]: Access = 0, Miss = 0, Miss_rate = -nan, Pending_hits = 0, Reservation_fails = 0
	L1D_cache_core[20]: Access = 0, Miss = 0, Miss_rate = -nan, Pending_hits = 0, Reservation_fails = 0
	L1D_cache_core[21]: Access = 0, Miss = 0, Miss_rate = -nan, Pending_hits = 0, Reservation_fails = 0
	L1D_cache_core[22]: Access = 0, Miss = 0, Miss_rate = -nan, Pending_hits = 0, Reservation_fails = 0
	L1D_cache_core[23]: Access = 0, Miss = 0, Miss_rate = -nan, Pending_hits = 0, Reservation_fails = 0
	L1D_cache_core[24]: Access = 0, Miss = 0, Miss_rate = -nan, Pending_hits = 0, Reservation_fails = 0
	L1D_cache_core[25]: Access = 0, Miss = 0, Miss_rate = -nan, Pending_hits = 0, Reservation_fails = 0
	L1D_cache_core[26]: Access = 0, Miss = 0, Miss_rate = -nan, Pending_hits = 0, Reservation_fails = 0
	L1D_cache_core[27]: Access = 0, Miss = 0, Miss_rate = -nan, Pending_hits = 0, Reservation_fails = 0
	L1D_total_cache_accesses = 0
	L1D_total_cache_misses = 0
	L1D_total_cache_pending_hits = 0
	L1D_total_cache_reservation_fails = 0
	L1D_cache_data_port_util = 0.000
	L1D_cache_fill_port_util = 0.000
L1C_cache:
	L1C_total_cache_accesses = 182400
	L1C_total_cache_misses = 1792
	L1C_total_cache_miss_rate = 0.0098
	L1C_total_cache_pending_hits = 0
	L1C_total_cache_reservation_fails = 4886
L1T_cache:
	L1T_total_cache_accesses = 0
	L1T_total_cache_misses = 0
	L1T_total_cache_pending_hits = 0
	L1T_total_cache_reservation_fails = 0

Total_core_cache_stats:
	Total_core_cache_stats_breakdown[GLOBAL_ACC_R][HIT] = 0
	Total_core_cache_stats_breakdown[GLOBAL_ACC_R][HIT_RESERVED] = 0
	Total_core_cache_stats_breakdown[GLOBAL_ACC_R][MISS] = 0
	Total_core_cache_stats_breakdown[GLOBAL_ACC_R][RESERVATION_FAIL] = 0
	Total_core_cache_stats_breakdown[LOCAL_ACC_R][HIT] = 0
	Total_core_cache_stats_breakdown[LOCAL_ACC_R][HIT_RESERVED] = 0
	Total_core_cache_stats_breakdown[LOCAL_ACC_R][MISS] = 0
	Total_core_cache_stats_breakdown[LOCAL_ACC_R][RESERVATION_FAIL] = 0
	Total_core_cache_stats_breakdown[CONST_ACC_R][HIT] = 180608
	Total_core_cache_stats_breakdown[CONST_ACC_R][HIT_RESERVED] = 0
	Total_core_cache_stats_breakdown[CONST_ACC_R][MISS] = 1792
	Total_core_cache_stats_breakdown[CONST_ACC_R][RESERVATION_FAIL] = 4886
	Total_core_cache_stats_breakdown[TEXTURE_ACC_R][HIT] = 0
	Total_core_cache_stats_breakdown[TEXTURE_ACC_R][HIT_RESERVED] = 0
	Total_core_cache_stats_breakdown[TEXTURE_ACC_R][MISS] = 0
	Total_core_cache_stats_breakdown[TEXTURE_ACC_R][RESERVATION_FAIL] = 0
	Total_core_cache_stats_breakdown[GLOBAL_ACC_W][HIT] = 0
	Total_core_cache_stats_breakdown[GLOBAL_ACC_W][HIT_RESERVED] = 0
	Total_core_cache_stats_breakdown[GLOBAL_ACC_W][MISS] = 0
	Total_core_cache_stats_breakdown[GLOBAL_ACC_W][RESERVATION_FAIL] = 0
	Total_core_cache_stats_breakdown[LOCAL_ACC_W][HIT] = 0
	Total_core_cache_stats_breakdown[LOCAL_ACC_W][HIT_RESERVED] = 0
	Total_core_cache_stats_breakdown[LOCAL_ACC_W][MISS] = 0
	Total_core_cache_stats_breakdown[LOCAL_ACC_W][RESERVATION_FAIL] = 0
	Total_core_cache_stats_breakdown[L1_WRBK_ACC][HIT] = 0
	Total_core_cache_stats_breakdown[L1_WRBK_ACC][HIT_RESERVED] = 0
	Total_core_cache_stats_breakdown[L1_WRBK_ACC][MISS] = 0
	Total_core_cache_stats_breakdown[L1_WRBK_ACC][RESERVATION_FAIL] = 0
	Total_core_cache_stats_breakdown[L2_WRBK_ACC][HIT] = 0
	Total_core_cache_stats_breakdown[L2_WRBK_ACC][HIT_RESERVED] = 0
	Total_core_cache_stats_breakdown[L2_WRBK_ACC][MISS] = 0
	Total_core_cache_stats_breakdown[L2_WRBK_ACC][RESERVATION_FAIL] = 0
	Total_core_cache_stats_breakdown[INST_ACC_R][HIT] = 864267
	Total_core_cache_stats_breakdown[INST_ACC_R][HIT_RESERVED] = 0
	Total_core_cache_stats_breakdown[INST_ACC_R][MISS] = 1981
	Total_core_cache_stats_breakdown[INST_ACC_R][RESERVATION_FAIL] = 6846
	Total_core_cache_stats_breakdown[L1_WR_ALLOC_R][HIT] = 0
	Total_core_cache_stats_breakdown[L1_WR_ALLOC_R][HIT_RESERVED] = 0
	Total_core_cache_stats_breakdown[L1_WR_ALLOC_R][MISS] = 0
	Total_core_cache_stats_breakdown[L1_WR_ALLOC_R][RESERVATION_FAIL] = 0
	Total_core_cache_stats_breakdown[L2_WR_ALLOC_R][HIT] = 0
	Total_core_cache_stats_breakdown[L2_WR_ALLOC_R][HIT_RESERVED] = 0
	Total_core_cache_stats_breakdown[L2_WR_ALLOC_R][MISS] = 0
	Total_core_cache_stats_breakdown[L2_WR_ALLOC_R][RESERVATION_FAIL] = 0
	Total_core_cache_stats_breakdown[CONST_ACC_R][TOTAL_ACCESS] = 182400
	Total_core_cache_stats_breakdown[INST_ACC_R][TOTAL_ACCESS] = 866248
Shader 0 warp_id issue ditsribution:
warp_id:
0, 1, 2, 3, 4, 5, 6, 7, 8, 9, 10, 11, 12, 13, 14, 15, 16, 17, 18, 19, 20, 21, 22, 23, 24, 25, 26, 27, 28, 29, 30, 31, 32, 33, 34, 35, 36, 37, 38, 39, 40, 41, 42, 43, 44, 45, 46, 47, 48, 49, 50, 51, 52, 53, 54, 55, 56, 57, 58, 59, 60, 61, 62, 63, 
distro:
1305, 1308, 1311, 1311, 1312, 1311, 1313, 1314, 1226, 1219, 1226, 1218, 1225, 1216, 1224, 1220, 1226, 1220, 1227, 1223, 1227, 1223, 1228, 1221, 1139, 1136, 1139, 1131, 1137, 1129, 1137, 1131, 1049, 1045, 1049, 1045, 1048, 1044, 1052, 1046, 1053, 1043, 1050, 1044, 1046, 1046, 1046, 1040, 1009, 1002, 1006, 998, 1005, 999, 1005, 997, 1011, 1002, 1010, 1005, 1007, 1003, 1009, 1001, 
gpgpu_n_tot_thrd_icount = 52521472
gpgpu_n_tot_w_icount = 1641296
gpgpu_n_stall_shd_mem = 590616
gpgpu_n_mem_read_local = 0
gpgpu_n_mem_write_local = 0
gpgpu_n_mem_read_global = 203287
gpgpu_n_mem_write_global = 67800
gpgpu_n_mem_texture = 0
gpgpu_n_mem_const = 28
gpgpu_n_load_insn  = 4317600
gpgpu_n_store_insn = 1440000
gpgpu_n_shmem_insn = 0
gpgpu_n_tex_insn = 0
gpgpu_n_const_mem_insn = 0
gpgpu_n_param_mem_insn = 5836800
gpgpu_n_shmem_bkconflict = 0
gpgpu_n_cache_bkconflict = 0
gpgpu_n_intrawarp_mshr_merge = 0
gpgpu_n_cmem_portconflict = 4886
gpgpu_stall_shd_mem[c_mem][bk_conf] = 4886
gpgpu_stall_shd_mem[c_mem][mshr_rc] = 0
gpgpu_stall_shd_mem[c_mem][icnt_rc] = 0
gpgpu_stall_shd_mem[c_mem][data_port_stall] = 0
gpgpu_stall_shd_mem[t_mem][mshr_rc] = 0
gpgpu_stall_shd_mem[t_mem][icnt_rc] = 0
gpgpu_stall_shd_mem[t_mem][data_port_stall] = 0
gpgpu_stall_shd_mem[s_mem][bk_conf] = 0
gpgpu_stall_shd_mem[gl_mem][bk_conf] = 0
gpgpu_stall_shd_mem[gl_mem][coal_stall] = 416219
gpgpu_stall_shd_mem[gl_mem][data_port_stall] = 0
gpgpu_stall_shd_mem[g_mem_ld][mshr_rc] = 0
gpgpu_stall_shd_mem[g_mem_ld][icnt_rc] = 169511
gpgpu_stall_shd_mem[g_mem_ld][wb_icnt_rc] = 0
gpgpu_stall_shd_mem[g_mem_ld][wb_rsrv_fail] = 0
gpgpu_stall_shd_mem[g_mem_st][mshr_rc] = 0
gpgpu_stall_shd_mem[g_mem_st][icnt_rc] = 0
gpgpu_stall_shd_mem[g_mem_st][wb_icnt_rc] = 0
gpgpu_stall_shd_mem[g_mem_st][wb_rsrv_fail] = 0
gpgpu_stall_shd_mem[l_mem_ld][mshr_rc] = 0
gpgpu_stall_shd_mem[l_mem_ld][icnt_rc] = 0
gpgpu_stall_shd_mem[l_mem_ld][wb_icnt_rc] = 0
gpgpu_stall_shd_mem[l_mem_ld][wb_rsrv_fail] = 0
gpgpu_stall_shd_mem[l_mem_st][mshr_rc] = 0
gpgpu_stall_shd_mem[l_mem_st][icnt_rc] = 0
gpgpu_stall_shd_mem[l_mem_ld][wb_icnt_rc] = 0
gpgpu_stall_shd_mem[l_mem_ld][wb_rsrv_fail] = 0
gpu_reg_bank_conflict_stalls = 0
Warp Occupancy Distribution:
Stall:340822	W0_Idle:26609958	W0_Scoreboard:62699493	W1:0	W2:0	W3:0	W4:0	W5:0	W6:0	W7:0	W8:0	W9:0	W10:0	W11:0	W12:0	W13:0	W14:0	W15:0	W16:21592	W17:0	W18:0	W19:0	W20:0	W21:0	W22:0	W23:0	W24:0	W25:0	W26:0	W27:0	W28:0	W29:0	W30:0	W31:0	W32:1619704
traffic_breakdown_coretomem[CONST_ACC_R] = 224 {8:28,}
traffic_breakdown_coretomem[GLOBAL_ACC_R] = 1626296 {8:203287,}
traffic_breakdown_coretomem[GLOBAL_ACC_W] = 6302400 {72:45600,136:22200,}
traffic_breakdown_coretomem[INST_ACC_R] = 672 {8:84,}
traffic_breakdown_memtocore[CONST_ACC_R] = 2016 {72:28,}
traffic_breakdown_memtocore[GLOBAL_ACC_R] = 18893112 {40:38,72:136723,136:66526,}
traffic_breakdown_memtocore[GLOBAL_ACC_W] = 542400 {8:67800,}
traffic_breakdown_memtocore[INST_ACC_R] = 11424 {136:84,}
maxmrqlatency = 887 
maxdqlatency = 0 
maxmflatency = 124085 
averagemflatency = 4662 
max_icnt2mem_latency = 123803 
max_icnt2sh_latency = 1846288 
mrq_lat_table:28740 	2227 	3106 	5314 	9735 	13314 	18954 	21709 	18401 	2114 	0 	0 	0 	0 	0 	0 	0 	0 	0 	0 	0 	0 	0 	0 	0 	0 	0 	0 	0 	0 	0 	0 	
dq_lat_table:0 	0 	0 	0 	0 	0 	0 	0 	0 	0 	0 	0 	0 	0 	0 	0 	0 	0 	0 	0 	0 	0 	0 	0 	0 	0 	0 	0 	0 	0 	0 	0 	
mf_lat_table:0 	0 	0 	0 	0 	0 	0 	74619 	74437 	80930 	7514 	1062 	754 	5109 	9420 	16511 	759 	0 	0 	0 	0 	0 	0 	0 	0 	0 	0 	0 	0 	0 	0 	0 	
icnt2mem_lat_table:0 	0 	38899 	25404 	19970 	9003 	53319 	39768 	36092 	14990 	145 	1056 	754 	5109 	9565 	16366 	759 	0 	0 	0 	0 	0 	0 	0 	
icnt2sh_lat_table:0 	0 	43172 	87993 	66441 	5528 	181 	0 	0 	0 	0 	0 	0 	0 	0 	0 	0 	0 	12278 	18922 	36600 	0 	0 	0 	
mf_lat_pw_table:0 	0 	0 	0 	0 	0 	0 	28 	60 	36 	1 	13 	6 	18 	26 	19 	6 	0 	0 	0 	0 	0 	0 	0 	0 	0 	0 	0 	0 	0 	0 	0 	
maximum concurrent accesses to same row:
dram[0]:        16        16        16        16        16        16        17        17        16        16        16        16        16        16        16        16 
dram[1]:        16        16        16        16        16        16        17        17        16        16        16        16        16        16        16        16 
dram[2]:        16        16        16        16        16        16        17        17        16        16        16        16        16        16        16        16 
dram[3]:        16        16        16        16        16        16        16        16        16        16        16        16        16        16        16        16 
dram[4]:        16        16        16        16        16        16        16        16        16        16        16        16        16        16        16        16 
dram[5]:        16        16        16        16        16        16        16        16        16        16        16        16        16        16        16        16 
dram[6]:        16        16        16        16        16        16        16        16        16        16        16        16        16        16        16        16 
dram[7]:        16        16        16        16        16        16        16        16        16        16        16        16        16        16        16        16 
dram[8]:        16        16        16        16        16        16        16        16        16        16        16        16        16        16        16        16 
dram[9]:        16        16        16        16        16        16        16        16        16        16        16        16        16        16        16        16 
dram[10]:        16        16        16        16        16        16        16        16        16        16        16        16        16        16        16        16 
maximum service time to same row:
dram[0]:    249614    249255    249543    249736    250003    250349    249663    249824    249617    249615    249450    249202    247503    247490    248209    248503 
dram[1]:    249935    249762    249792    249672    250458    250576    249915    249782    249781    249537    249046    249079    247640    247621    248583    248717 
dram[2]:    249913    249897    249989    250089    250180    250467    249873    249781    249619    249548    249185    249149    247596    247597    248503    248649 
dram[3]:    249017    249367    250056    249837    250303    249930    249783    249824    249794    249550    249378    249254    247649    247600    248865    248766 
dram[4]:    249615    249710    249854    249330    249951    249905    249589    249646    249671    249549    249264    249200    247719    247682    248559    248881 
dram[5]:    249636    250003    249929    250116    250187    250371    249784    249870    249532    249541    249175    249422    247566    247535    248678    248266 
dram[6]:    249371    249232    250091    249612    250262    250071    249762    249756    249543    249632    249041    249017    247647    247632    248592    248759 
dram[7]:    249582    249349    249641    249706    250275    249855    249650    249751    249625    249773    249268    249473    247832    247581    248526    248462 
dram[8]:    249549    249646    249883    249492    250336    250219    249872    249837    249519    249677    249441    249221    247727    247606    248314    248280 
dram[9]:    249802    249468    249942    249384    250447    249267    249870    249850    249674    249765    249064    249141    247754    247697    248481    248860 
dram[10]:    249448    249400    249731    249679    250128    250222    249751    249810    249578    249723    249165    249359    247625    247670    248739    248759 
average row accesses per activate:
dram[0]:  6.130435  6.579439  6.342342  6.901961  6.663462  7.000000  6.579439  6.342342  6.121739  6.458715  6.641510  6.285714  7.237113  6.950495  7.257732  7.489362 
dram[1]:  6.175438  6.458715  6.400000  6.769231  5.872881  6.300000  7.040000  6.342342  6.230089  6.970297  5.507812  5.632000  6.750000  7.389474  6.834951  6.704762 
dram[2]:  6.175438  6.769231  6.704762  6.769231  6.407407  6.851485  5.818182  6.409091  6.704762  6.769231  6.342342  6.518518  7.153061  6.740385  7.111111  6.970297 
dram[3]:  6.400000  7.257732  7.040000  6.342342  6.407407  6.290909  6.342342  6.704762  6.285714  6.641510  6.641510  6.579439  6.203540  6.490741  6.769231  6.769231 
dram[4]:  6.342342  6.342342  6.175438  6.400000  5.914530  6.407407  5.966102  6.017094  6.458715  6.285714  6.285714  6.458715  6.431193  7.226804  7.050000  6.409091 
dram[5]:  6.285714  7.183673  6.175438  7.333333  6.017391  6.348624  7.111111  6.400000  6.704762  6.641510  6.518518  6.121739  6.315315  6.676190  7.343750  6.970297 
dram[6]:  5.723577  6.704762  6.400000  6.641510  6.252252  6.141593  6.068965  6.769231  6.518518  6.769231  5.866667  6.121739  6.551402  6.613207  6.579439  6.704762 
dram[7]:  5.866667  6.834951  6.121739  6.704762  6.196429  6.252252  6.458715  6.834951  5.866667  6.285714  5.915967  6.834951  5.890756  6.490741  6.175438  6.230089 
dram[8]:  6.901961  6.970297  6.518518  6.230089  6.425926  7.010101  7.040000  7.489362  6.769231  6.641510  6.342342  6.579439  7.548387  7.020000  7.040000  7.257732 
dram[9]:  6.175438  6.342342  6.230089  6.285714  6.366972  6.309091  6.641510  6.579439  6.518518  6.342342  5.500000  6.121739  6.622642  6.815534  6.121739  6.704762 
dram[10]:  6.458715  6.068965  6.579439  6.579439  5.831933  6.940000  6.641510  6.175438  6.704762  6.017094  6.342342  5.966102  6.267857  6.750000  6.970297  6.901961 
average row locality = 123614/19020 = 6.499159
number of total memory accesses made:
dram[0]:         0         0         0         0         0         0         0         0         0         0         0         0         0         0         0         0 
dram[1]:         0         0         0         0         0         0         0         0         0         0         0         0         0         0         0         0 
dram[2]:         0         0         0         0         0         0         0         0         0         0         0         0         0         0         0         0 
dram[3]:         0         0         0         0         0         0         0         0         0         0         0         0         0         0         0         0 
dram[4]:         0         0         0         0         0         0         0         0         0         0         0         0         0         0         0         0 
dram[5]:         0         0         0         0         0         0         0         0         0         0         0         0         0         0         0         0 
dram[6]:         0         0         0         0         0         0         0         0         0         0         0         0         0         0         0         0 
dram[7]:         0         0         0         0         0         0         0         0         0         0         0         0         0         0         0         0 
dram[8]:         0         0         0         0         0         0         0         0         0         0         0         0         0         0         0         0 
dram[9]:         0         0         0         0         0         0         0         0         0         0         0         0         0         0         0         0 
dram[10]:         0         0         0         0         0         0         0         0         0         0         0         0         0         0         0         0 
total accesses: 0
min_bank_accesses = 0!
min_chip_accesses = 0!
number of total read accesses:
dram[0]:       513       512       512       512       509       509       512       512       512       512       512       512       510       510       512       512 
dram[1]:       512       512       512       512       509       509       512       512       512       512       513       512       510       510       512       512 
dram[2]:       512       512       512       512       509       509       512       512       512       512       512       512       509       509       512       512 
dram[3]:       512       512       512       512       509       509       512       512       512       512       512       512       509       509       512       512 
dram[4]:       512       512       512       512       509       509       512       512       512       512       512       512       509       509       513       513 
dram[5]:       512       512       512       512       509       509       512       512       512       512       512       512       509       509       513       512 
dram[6]:       512       512       512       512       510       510       512       512       512       512       512       512       509       509       512       512 
dram[7]:       512       512       512       512       510       510       512       512       512       512       512       512       509       509       512       512 
dram[8]:       512       512       512       512       510       510       512       512       512       512       512       512       510       510       512       512 
dram[9]:       512       512       512       512       510       510       512       512       512       512       512       512       510       510       512       512 
dram[10]:       512       512       512       512       510       510       512       512       512       512       512       512       510       510       512       512 
total reads: 90005
bank skew: 513/509 = 1.01
chip skew: 8184/8180 = 1.00
number of total write accesses:
dram[0]:       192       192       192       192       184       184       192       192       192       192       192       192       192       192       192       192 
dram[1]:       192       192       192       192       184       184       192       192       192       192       192       192       192       192       192       192 
dram[2]:       192       192       192       192       183       183       192       193       192       192       192       192       192       192       192       192 
dram[3]:       192       192       192       192       183       183       192       192       192       192       192       192       192       192       192       192 
dram[4]:       192       192       192       192       183       183       192       192       192       192       192       192       192       192       192       192 
dram[5]:       192       192       192       192       183       183       192       192       192       192       192       192       192       192       192       192 
dram[6]:       192       192       192       192       184       184       192       192       192       192       192       192       192       192       192       192 
dram[7]:       192       192       192       192       184       184       192       192       192       192       192       192       192       192       192       192 
dram[8]:       192       192       192       192       184       184       192       192       192       192       192       192       192       192       192       192 
dram[9]:       192       192       192       192       184       184       192       192       192       192       192       192       192       192       192       192 
dram[10]:       192       192       192       192       184       184       192       192       192       192       192       192       192       192       192       192 
total reads: 33609
bank skew: 193/183 = 1.05
chip skew: 3056/3054 = 1.00
average mf latency per bank:
dram[0]:       8369      8478      9538      9687     12945     13173     12094     12028      9391      9558      9001      8809      8110      8086     12023     11856
dram[1]:       8801      8867      9450      9867     12530     12110     12049     12363      9383      9305     10024      8972      8016      8524     11699     11906
dram[2]:       8830      8773      9983      9608     12314     12350     12514     12677      9163      9142      8753      8857      8598      8563     11605     11493
dram[3]:       8672      8778      9555      9701     12370     12443     12577     12727      9379      9539      8843      8994      8273      7777     11352     11479
dram[4]:       8898      8851      9573      9458     13065     12634     12565     12437      9667      9331      8951      8904      7873      8263     11370     11587
dram[5]:       8606      8380      9636      9658     12811     12546     12553     12866      9328      9335      8796      8650      8574      8467     11369     11308
dram[6]:       8343      8218      9810      9820     12549     12787     12750     12448      9331      9247      9599      9585      8482      7997     11450     11684
dram[7]:       8624      8742      9813      9549     12963     12701     12553     12449      9266      9143      9512      9603      7886      7884     11796     12024
dram[8]:       8937      9111      9690      9699     12450     12643     12269     12094      9149      9263     10058      9858      7919      8047     12106     11563
dram[9]:       8702      8651      9504      9626     12277     12573     12053     12204      9157      9213      9890      9490      8147      8442     11913     11717
dram[10]:       8731      8780      9560      9468     13053     13266     12055     11837      9245      9432      9100      9308      8377      8439     11500     11655
maximum mf latency per bank:
dram[0]:     123698    123691     63791     63812    123671    123691    123982    123925     63460     63481     63577     63582    123847    123792    123701    123701
dram[1]:     123688    123694     63775     63780    123674    123678    123918    124018     63454     63456     63578     63583    123783    123989    123693    123676
dram[2]:     123690    123698     63800     63813    123679    123679    124049    124078     63456     63443     63579     63583    123811    123819    123692    123683
dram[3]:     123699    123697     63775     63748    123685    123678    124029    123949     63448     63464     63580     63586    123856    123794    123677    123667
dram[4]:     123702    123695     63766     63770    123682    123693    123952    123990     63420     63460     63578     63579    123834    123960    123702    123705
dram[5]:     123688     63810     63740     63885    123679    123696    123893    124085     63421     63417     63578     63582    123961    123835    123696    123706
dram[6]:      63703     63849     63763     63793    123688    123698    124082    124017     63426     63419    123797    123802    123842    123843    123696    123697
dram[7]:     123700    123681     63754     63772    123687    123693    123939    123989     63432     63417    123727    123751    123810    123849    123701    123696
dram[8]:     123676    123688     63746     63820    123684    123703    123892    123917     63417     63399    124041    123802    123835    123772    123698    123697
dram[9]:     123683    123688     63817     63760    123676    123683    123928    124031     63404     63429    123795    123833    123974    123983    123695    123706
dram[10]:     123698    123701     63735     63765    123687    123689    123914    123961     63431     63425    123754    123797    123816    123855    123706    123696
Memory Partition 0: 
Cache L2_bank_000:
MSHR contents

Cache L2_bank_001:
MSHR contents

In Dram Latency Queue (total = 0): 
DRAM[0]: 16 bks, busW=4 BL=8 CL=12, tRRD=2 tCCD=6, tRCD=12 tRAS=28 tRP=12 tRC=40
n_cmd=3015787 n_nop=2967471 n_act=1688 n_pre=1672 n_req=11239 n_rd=32732 n_write=12224 bw_util=0.02981
n_activity=100276 dram_eff=0.8966
bk0: 2052a 2981782i bk1: 2048a 2981732i bk2: 2048a 2980397i bk3: 2048a 2981103i bk4: 2036a 2984684i bk5: 2036a 2986220i bk6: 2048a 2984998i bk7: 2048a 2983359i bk8: 2048a 2981633i bk9: 2048a 2980995i bk10: 2048a 2979755i bk11: 2048a 2976982i bk12: 2040a 2983426i bk13: 2040a 2980584i bk14: 2048a 2979021i bk15: 2048a 2977414i 
dram_util_bins: 0 0 0 0 0 0 0 0 0 0
dram_eff_bins: 0 0 0 0 0 0 0 0 0 0
mrqq: max=64 avg=0.812672
Memory Partition 1: 
Cache L2_bank_002:
MSHR contents

Cache L2_bank_003:
MSHR contents

In Dram Latency Queue (total = 0): 
DRAM[1]: 16 bks, busW=4 BL=8 CL=12, tRRD=2 tCCD=6, tRCD=12 tRAS=28 tRP=12 tRC=40
n_cmd=3015787 n_nop=2967347 n_act=1750 n_pre=1734 n_req=11239 n_rd=32732 n_write=12224 bw_util=0.02981
n_activity=100443 dram_eff=0.8952
bk0: 2048a 2981824i bk1: 2048a 2980944i bk2: 2048a 2979892i bk3: 2048a 2977645i bk4: 2036a 2985013i bk5: 2036a 2982772i bk6: 2048a 2985408i bk7: 2048a 2983291i bk8: 2048a 2981255i bk9: 2048a 2981713i bk10: 2052a 2980270i bk11: 2048a 2976707i bk12: 2040a 2982689i bk13: 2040a 2981868i bk14: 2048a 2981858i bk15: 2048a 2979570i 
dram_util_bins: 0 0 0 0 0 0 0 0 0 0
dram_eff_bins: 0 0 0 0 0 0 0 0 0 0
mrqq: max=64 avg=0.797609
Memory Partition 2: 
Cache L2_bank_004:
MSHR contents

Cache L2_bank_005:
MSHR contents

In Dram Latency Queue (total = 0): 
DRAM[2]: 16 bks, busW=4 BL=8 CL=12, tRRD=2 tCCD=6, tRCD=12 tRAS=28 tRP=12 tRC=40
n_cmd=3015787 n_nop=2967471 n_act=1697 n_pre=1681 n_req=11235 n_rd=32720 n_write=12218 bw_util=0.0298
n_activity=99854 dram_eff=0.9001
bk0: 2048a 2982604i bk1: 2048a 2981682i bk2: 2048a 2982556i bk3: 2048a 2980608i bk4: 2036a 2983380i bk5: 2036a 2981838i bk6: 2048a 2982754i bk7: 2048a 2982357i bk8: 2048a 2982420i bk9: 2048a 2979788i bk10: 2048a 2979097i bk11: 2048a 2979390i bk12: 2036a 2983437i bk13: 2036a 2979926i bk14: 2048a 2980385i bk15: 2048a 2979126i 
dram_util_bins: 0 0 0 0 0 0 0 0 0 0
dram_eff_bins: 0 0 0 0 0 0 0 0 0 0
mrqq: max=64 avg=0.810884
Memory Partition 3: 
Cache L2_bank_006:
MSHR contents

Cache L2_bank_007:
MSHR contents

In Dram Latency Queue (total = 0): 
DRAM[3]: 16 bks, busW=4 BL=8 CL=12, tRRD=2 tCCD=6, tRCD=12 tRAS=28 tRP=12 tRC=40
n_cmd=3015787 n_nop=2967443 n_act=1712 n_pre=1696 n_req=11234 n_rd=32720 n_write=12216 bw_util=0.0298
n_activity=100111 dram_eff=0.8977
bk0: 2048a 2981550i bk1: 2048a 2983890i bk2: 2048a 2984229i bk3: 2048a 2981731i bk4: 2036a 2986564i bk5: 2036a 2984636i bk6: 2048a 2983909i bk7: 2048a 2984505i bk8: 2048a 2981812i bk9: 2048a 2979909i bk10: 2048a 2979769i bk11: 2048a 2980439i bk12: 2036a 2979585i bk13: 2036a 2981304i bk14: 2048a 2979702i bk15: 2048a 2978644i 
dram_util_bins: 0 0 0 0 0 0 0 0 0 0
dram_eff_bins: 0 0 0 0 0 0 0 0 0 0
mrqq: max=64 avg=0.787831
Memory Partition 4: 
Cache L2_bank_008:
MSHR contents

Cache L2_bank_009:
MSHR contents

In Dram Latency Queue (total = 0): 
DRAM[4]: 16 bks, busW=4 BL=8 CL=12, tRRD=2 tCCD=6, tRCD=12 tRAS=28 tRP=12 tRC=40
n_cmd=3015787 n_nop=2967331 n_act=1764 n_pre=1748 n_req=11236 n_rd=32728 n_write=12216 bw_util=0.02981
n_activity=100301 dram_eff=0.8962
bk0: 2048a 2982174i bk1: 2048a 2982309i bk2: 2048a 2983606i bk3: 2048a 2980816i bk4: 2036a 2984403i bk5: 2036a 2983306i bk6: 2048a 2984858i bk7: 2048a 2983260i bk8: 2048a 2981593i bk9: 2048a 2980808i bk10: 2048a 2980085i bk11: 2048a 2977191i bk12: 2036a 2983629i bk13: 2036a 2982331i bk14: 2052a 2984299i bk15: 2052a 2978604i 
dram_util_bins: 0 0 0 0 0 0 0 0 0 0
dram_eff_bins: 0 0 0 0 0 0 0 0 0 0
mrqq: max=64 avg=0.781119
Memory Partition 5: 
Cache L2_bank_010:
MSHR contents

Cache L2_bank_011:
MSHR contents

In Dram Latency Queue (total = 0): 
DRAM[5]: 16 bks, busW=4 BL=8 CL=12, tRRD=2 tCCD=6, tRCD=12 tRAS=28 tRP=12 tRC=40
n_cmd=3015787 n_nop=2967463 n_act=1700 n_pre=1684 n_req=11235 n_rd=32724 n_write=12216 bw_util=0.0298
n_activity=100171 dram_eff=0.8973
bk0: 2048a 2983068i bk1: 2048a 2981952i bk2: 2048a 2980114i bk3: 2048a 2981095i bk4: 2036a 2984054i bk5: 2036a 2980222i bk6: 2048a 2984729i bk7: 2048a 2982813i bk8: 2048a 2981445i bk9: 2048a 2980428i bk10: 2048a 2979184i bk11: 2048a 2978554i bk12: 2036a 2983153i bk13: 2036a 2981502i bk14: 2052a 2980266i bk15: 2048a 2979983i 
dram_util_bins: 0 0 0 0 0 0 0 0 0 0
dram_eff_bins: 0 0 0 0 0 0 0 0 0 0
mrqq: max=64 avg=0.827524
Memory Partition 6: 
Cache L2_bank_012:
MSHR contents

Cache L2_bank_013:
MSHR contents

In Dram Latency Queue (total = 0): 
DRAM[6]: 16 bks, busW=4 BL=8 CL=12, tRRD=2 tCCD=6, tRCD=12 tRAS=28 tRP=12 tRC=40
n_cmd=3015787 n_nop=2967331 n_act=1760 n_pre=1744 n_req=11238 n_rd=32728 n_write=12224 bw_util=0.02981
n_activity=100248 dram_eff=0.8968
bk0: 2048a 2981082i bk1: 2048a 2981846i bk2: 2048a 2982420i bk3: 2048a 2980888i bk4: 2040a 2984204i bk5: 2040a 2982489i bk6: 2048a 2984438i bk7: 2048a 2982954i bk8: 2048a 2981560i bk9: 2048a 2979167i bk10: 2048a 2975606i bk11: 2048a 2977645i bk12: 2036a 2980605i bk13: 2036a 2979635i bk14: 2048a 2979800i bk15: 2048a 2978179i 
dram_util_bins: 0 0 0 0 0 0 0 0 0 0
dram_eff_bins: 0 0 0 0 0 0 0 0 0 0
mrqq: max=64 avg=0.779695
Memory Partition 7: 
Cache L2_bank_014:
MSHR contents

Cache L2_bank_015:
MSHR contents

In Dram Latency Queue (total = 0): 
DRAM[7]: 16 bks, busW=4 BL=8 CL=12, tRRD=2 tCCD=6, tRCD=12 tRAS=28 tRP=12 tRC=40
n_cmd=3015787 n_nop=2967279 n_act=1786 n_pre=1770 n_req=11238 n_rd=32728 n_write=12224 bw_util=0.02981
n_activity=100647 dram_eff=0.8933
bk0: 2048a 2982555i bk1: 2048a 2979701i bk2: 2048a 2982305i bk3: 2048a 2980828i bk4: 2040a 2984300i bk5: 2040a 2981368i bk6: 2048a 2983674i bk7: 2048a 2983187i bk8: 2048a 2981410i bk9: 2048a 2980200i bk10: 2048a 2979635i bk11: 2048a 2979880i bk12: 2036a 2979869i bk13: 2036a 2979441i bk14: 2048a 2978463i bk15: 2048a 2979198i 
dram_util_bins: 0 0 0 0 0 0 0 0 0 0
dram_eff_bins: 0 0 0 0 0 0 0 0 0 0
mrqq: max=64 avg=0.803106
Memory Partition 8: 
Cache L2_bank_016:
MSHR contents

Cache L2_bank_017:
MSHR contents

In Dram Latency Queue (total = 0): 
DRAM[8]: 16 bks, busW=4 BL=8 CL=12, tRRD=2 tCCD=6, tRCD=12 tRAS=28 tRP=12 tRC=40
n_cmd=3015787 n_nop=2967557 n_act=1643 n_pre=1627 n_req=11240 n_rd=32736 n_write=12224 bw_util=0.02982
n_activity=100092 dram_eff=0.8984
bk0: 2048a 2982307i bk1: 2048a 2980301i bk2: 2048a 2981047i bk3: 2048a 2978816i bk4: 2040a 2982405i bk5: 2040a 2980939i bk6: 2048a 2985529i bk7: 2048a 2985719i bk8: 2048a 2981046i bk9: 2048a 2979190i bk10: 2048a 2979602i bk11: 2048a 2979734i bk12: 2040a 2984499i bk13: 2040a 2982341i bk14: 2048a 2979887i bk15: 2048a 2980288i 
dram_util_bins: 0 0 0 0 0 0 0 0 0 0
dram_eff_bins: 0 0 0 0 0 0 0 0 0 0
mrqq: max=64 avg=0.836617
Memory Partition 9: 
Cache L2_bank_018:
MSHR contents

Cache L2_bank_019:
MSHR contents

In Dram Latency Queue (total = 0): 
DRAM[9]: 16 bks, busW=4 BL=8 CL=12, tRRD=2 tCCD=6, tRCD=12 tRAS=28 tRP=12 tRC=40
n_cmd=3015787 n_nop=2967297 n_act=1773 n_pre=1757 n_req=11240 n_rd=32736 n_write=12224 bw_util=0.02982
n_activity=100340 dram_eff=0.8962
bk0: 2048a 2980914i bk1: 2048a 2981795i bk2: 2048a 2981174i bk3: 2048a 2979517i bk4: 2040a 2985146i bk5: 2040a 2982038i bk6: 2048a 2984011i bk7: 2048a 2981697i bk8: 2048a 2979455i bk9: 2048a 2979032i bk10: 2048a 2979043i bk11: 2048a 2977837i bk12: 2040a 2983658i bk13: 2040a 2980482i bk14: 2048a 2978593i bk15: 2048a 2977721i 
dram_util_bins: 0 0 0 0 0 0 0 0 0 0
dram_eff_bins: 0 0 0 0 0 0 0 0 0 0
mrqq: max=64 avg=0.801453
Memory Partition 10: 
Cache L2_bank_020:
MSHR contents

Cache L2_bank_021:
MSHR contents

In Dram Latency Queue (total = 0): 
DRAM[10]: 16 bks, busW=4 BL=8 CL=12, tRRD=2 tCCD=6, tRCD=12 tRAS=28 tRP=12 tRC=40
n_cmd=3015787 n_nop=2967347 n_act=1748 n_pre=1732 n_req=11240 n_rd=32736 n_write=12224 bw_util=0.02982
n_activity=100107 dram_eff=0.8982
bk0: 2048a 2983222i bk1: 2048a 2980537i bk2: 2048a 2982191i bk3: 2048a 2980884i bk4: 2040a 2982006i bk5: 2040a 2982671i bk6: 2048a 2985027i bk7: 2048a 2980338i bk8: 2048a 2982770i bk9: 2048a 2980500i bk10: 2048a 2979153i bk11: 2048a 2976129i bk12: 2040a 2981155i bk13: 2040a 2979553i bk14: 2048a 2980108i bk15: 2048a 2978058i 
dram_util_bins: 0 0 0 0 0 0 0 0 0 0
dram_eff_bins: 0 0 0 0 0 0 0 0 0 0
mrqq: max=64 avg=0.833756

========= L2 cache stats =========
L2_cache_bank[0]: Access = 12344, Miss = 4092, Miss_rate = 0.331, Pending_hits = 3686, Reservation_fails = 0
L2_cache_bank[1]: Access = 12320, Miss = 4091, Miss_rate = 0.332, Pending_hits = 3856, Reservation_fails = 0
L2_cache_bank[2]: Access = 12358, Miss = 4092, Miss_rate = 0.331, Pending_hits = 3762, Reservation_fails = 0
L2_cache_bank[3]: Access = 12318, Miss = 4091, Miss_rate = 0.332, Pending_hits = 3796, Reservation_fails = 0
L2_cache_bank[4]: Access = 12314, Miss = 4090, Miss_rate = 0.332, Pending_hits = 3634, Reservation_fails = 0
L2_cache_bank[5]: Access = 12318, Miss = 4090, Miss_rate = 0.332, Pending_hits = 3767, Reservation_fails = 0
L2_cache_bank[6]: Access = 12321, Miss = 4090, Miss_rate = 0.332, Pending_hits = 3719, Reservation_fails = 0
L2_cache_bank[7]: Access = 12321, Miss = 4090, Miss_rate = 0.332, Pending_hits = 3789, Reservation_fails = 0
L2_cache_bank[8]: Access = 12345, Miss = 4091, Miss_rate = 0.331, Pending_hits = 3703, Reservation_fails = 0
L2_cache_bank[9]: Access = 12347, Miss = 4091, Miss_rate = 0.331, Pending_hits = 3744, Reservation_fails = 0
L2_cache_bank[10]: Access = 12351, Miss = 4091, Miss_rate = 0.331, Pending_hits = 3767, Reservation_fails = 0
L2_cache_bank[11]: Access = 12322, Miss = 4090, Miss_rate = 0.332, Pending_hits = 3884, Reservation_fails = 0
L2_cache_bank[12]: Access = 12321, Miss = 4091, Miss_rate = 0.332, Pending_hits = 3744, Reservation_fails = 0
L2_cache_bank[13]: Access = 12319, Miss = 4091, Miss_rate = 0.332, Pending_hits = 3724, Reservation_fails = 0
L2_cache_bank[14]: Access = 12323, Miss = 4091, Miss_rate = 0.332, Pending_hits = 3764, Reservation_fails = 0
L2_cache_bank[15]: Access = 12323, Miss = 4091, Miss_rate = 0.332, Pending_hits = 3854, Reservation_fails = 0
L2_cache_bank[16]: Access = 12324, Miss = 4092, Miss_rate = 0.332, Pending_hits = 3725, Reservation_fails = 0
L2_cache_bank[17]: Access = 12320, Miss = 4092, Miss_rate = 0.332, Pending_hits = 3785, Reservation_fails = 0
L2_cache_bank[18]: Access = 12322, Miss = 4092, Miss_rate = 0.332, Pending_hits = 3717, Reservation_fails = 0
L2_cache_bank[19]: Access = 12324, Miss = 4092, Miss_rate = 0.332, Pending_hits = 3825, Reservation_fails = 0
L2_cache_bank[20]: Access = 12324, Miss = 4092, Miss_rate = 0.332, Pending_hits = 3676, Reservation_fails = 0
L2_cache_bank[21]: Access = 12320, Miss = 4092, Miss_rate = 0.332, Pending_hits = 3848, Reservation_fails = 0
L2_total_cache_accesses = 271199
L2_total_cache_misses = 90005
L2_total_cache_miss_rate = 0.3319
L2_total_cache_pending_hits = 82769
L2_total_cache_reservation_fails = 0
L2_total_cache_breakdown:
	L2_cache_stats_breakdown[GLOBAL_ACC_R][HIT] = 30663
	L2_cache_stats_breakdown[GLOBAL_ACC_R][HIT_RESERVED] = 82660
	L2_cache_stats_breakdown[GLOBAL_ACC_R][MISS] = 89964
	L2_cache_stats_breakdown[GLOBAL_ACC_R][RESERVATION_FAIL] = 0
	L2_cache_stats_breakdown[LOCAL_ACC_R][HIT] = 0
	L2_cache_stats_breakdown[LOCAL_ACC_R][HIT_RESERVED] = 0
	L2_cache_stats_breakdown[LOCAL_ACC_R][MISS] = 0
	L2_cache_stats_breakdown[LOCAL_ACC_R][RESERVATION_FAIL] = 0
	L2_cache_stats_breakdown[CONST_ACC_R][HIT] = 0
	L2_cache_stats_breakdown[CONST_ACC_R][HIT_RESERVED] = 27
	L2_cache_stats_breakdown[CONST_ACC_R][MISS] = 1
	L2_cache_stats_breakdown[CONST_ACC_R][RESERVATION_FAIL] = 0
	L2_cache_stats_breakdown[TEXTURE_ACC_R][HIT] = 0
	L2_cache_stats_breakdown[TEXTURE_ACC_R][HIT_RESERVED] = 0
	L2_cache_stats_breakdown[TEXTURE_ACC_R][MISS] = 0
	L2_cache_stats_breakdown[TEXTURE_ACC_R][RESERVATION_FAIL] = 0
	L2_cache_stats_breakdown[GLOBAL_ACC_W][HIT] = 67762
	L2_cache_stats_breakdown[GLOBAL_ACC_W][HIT_RESERVED] = 1
	L2_cache_stats_breakdown[GLOBAL_ACC_W][MISS] = 37
	L2_cache_stats_breakdown[GLOBAL_ACC_W][RESERVATION_FAIL] = 0
	L2_cache_stats_breakdown[LOCAL_ACC_W][HIT] = 0
	L2_cache_stats_breakdown[LOCAL_ACC_W][HIT_RESERVED] = 0
	L2_cache_stats_breakdown[LOCAL_ACC_W][MISS] = 0
	L2_cache_stats_breakdown[LOCAL_ACC_W][RESERVATION_FAIL] = 0
	L2_cache_stats_breakdown[L1_WRBK_ACC][HIT] = 0
	L2_cache_stats_breakdown[L1_WRBK_ACC][HIT_RESERVED] = 0
	L2_cache_stats_breakdown[L1_WRBK_ACC][MISS] = 0
	L2_cache_stats_breakdown[L1_WRBK_ACC][RESERVATION_FAIL] = 0
	L2_cache_stats_breakdown[L2_WRBK_ACC][HIT] = 0
	L2_cache_stats_breakdown[L2_WRBK_ACC][HIT_RESERVED] = 0
	L2_cache_stats_breakdown[L2_WRBK_ACC][MISS] = 0
	L2_cache_stats_breakdown[L2_WRBK_ACC][RESERVATION_FAIL] = 0
	L2_cache_stats_breakdown[INST_ACC_R][HIT] = 0
	L2_cache_stats_breakdown[INST_ACC_R][HIT_RESERVED] = 81
	L2_cache_stats_breakdown[INST_ACC_R][MISS] = 3
	L2_cache_stats_breakdown[INST_ACC_R][RESERVATION_FAIL] = 0
	L2_cache_stats_breakdown[L1_WR_ALLOC_R][HIT] = 0
	L2_cache_stats_breakdown[L1_WR_ALLOC_R][HIT_RESERVED] = 0
	L2_cache_stats_breakdown[L1_WR_ALLOC_R][MISS] = 0
	L2_cache_stats_breakdown[L1_WR_ALLOC_R][RESERVATION_FAIL] = 0
	L2_cache_stats_breakdown[L2_WR_ALLOC_R][HIT] = 0
	L2_cache_stats_breakdown[L2_WR_ALLOC_R][HIT_RESERVED] = 0
	L2_cache_stats_breakdown[L2_WR_ALLOC_R][MISS] = 0
	L2_cache_stats_breakdown[L2_WR_ALLOC_R][RESERVATION_FAIL] = 0
	L2_cache_stats_breakdown[GLOBAL_ACC_R][TOTAL_ACCESS] = 203287
	L2_cache_stats_breakdown[CONST_ACC_R][TOTAL_ACCESS] = 28
	L2_cache_stats_breakdown[GLOBAL_ACC_W][TOTAL_ACCESS] = 67800
	L2_cache_stats_breakdown[INST_ACC_R][TOTAL_ACCESS] = 84
L2_cache_data_port_util = 0.011
L2_cache_fill_port_util = 0.010

icnt_total_pkts_mem_to_simt=811179
icnt_total_pkts_simt_to_mem=451199
LD_mem_lat_dist  0 0 0 0 0 0 0 0 0 0 0 0 0 0 0 0 0 0 0 0 0 0 0 0 0 0 0
ST_mem_lat_dist  0 0 0 0 0 0 0 0 0 0 0 0 0 0 0 0 0 0 0 0 0 0 0 0 0 0 0
----------------------------Interconnect-DETAILS--------------------------------
Class 0:
Packet latency average = 48.7846
	minimum = 6
	maximum = 1642
Network latency average = 30.5984
	minimum = 6
	maximum = 1385
Slowest packet = 301863
Flit latency average = 22.156
	minimum = 6
	maximum = 1385
Slowest flit = 696126
Fragmentation average = 0.0828174
	minimum = 0
	maximum = 774
Injected packet rate average = 0.00333961
	minimum = 0.00290554 (at node 6)
	maximum = 0.00380448 (at node 30)
Accepted packet rate average = 0.00333961
	minimum = 0.00290554 (at node 6)
	maximum = 0.00380448 (at node 30)
Injected flit rate average = 0.0077726
	minimum = 0.00483149 (at node 6)
	maximum = 0.0113873 (at node 38)
Accepted flit rate average= 0.0077726
	minimum = 0.00630919 (at node 32)
	maximum = 0.0092566 (at node 19)
Injected packet length average = 2.3274
Accepted packet length average = 2.3274
Total in-flight flits = 0 (0 measured)
====== Overall Traffic Statistics ======
====== Traffic class 0 ======
Packet latency average = 48.7846 (1 samples)
	minimum = 6 (1 samples)
	maximum = 1642 (1 samples)
Network latency average = 30.5984 (1 samples)
	minimum = 6 (1 samples)
	maximum = 1385 (1 samples)
Flit latency average = 22.156 (1 samples)
	minimum = 6 (1 samples)
	maximum = 1385 (1 samples)
Fragmentation average = 0.0828174 (1 samples)
	minimum = 0 (1 samples)
	maximum = 774 (1 samples)
Injected packet rate average = 0.00333961 (1 samples)
	minimum = 0.00290554 (1 samples)
	maximum = 0.00380448 (1 samples)
Accepted packet rate average = 0.00333961 (1 samples)
	minimum = 0.00290554 (1 samples)
	maximum = 0.00380448 (1 samples)
Injected flit rate average = 0.0077726 (1 samples)
	minimum = 0.00483149 (1 samples)
	maximum = 0.0113873 (1 samples)
Accepted flit rate average = 0.0077726 (1 samples)
	minimum = 0.00630919 (1 samples)
	maximum = 0.0092566 (1 samples)
Injected packet size average = 2.3274 (1 samples)
Accepted packet size average = 2.3274 (1 samples)
Hops average = 1 (1 samples)
----------------------------END-of-Interconnect-DETAILS-------------------------


gpgpu_simulation_time = 0 days, 0 hrs, 31 min, 26 sec (1886 sec)
gpgpu_simulation_rate = 26138 (inst/sec)
gpgpu_simulation_rate = 978 (cycle/sec)
GPGPU-Sim: synchronize waiting for inactive GPU simulation
GPGPU-Sim API: Stream Manager State
GPGPU-Sim: detected inactive GPU simulation thread

GPGPU-Sim PTX: cudaLaunch for 0x0x40167f (mode=performance simulation) on stream 0
GPGPU-Sim PTX: pushing kernel '_Z17fdtd_step2_kernelPfS_S_i' to stream 0, gridDim= (38,150,1) blockDim = (32,8,1) 
GPGPU-Sim uArch: Shader 17 bind to kernel 2 '_Z17fdtd_step2_kernelPfS_S_i'
GPGPU-Sim uArch: CTA/core = 8, limited by: threads
GPGPU-Sim uArch: Shader 18 bind to kernel 2 '_Z17fdtd_step2_kernelPfS_S_i'
GPGPU-Sim uArch: Shader 19 bind to kernel 2 '_Z17fdtd_step2_kernelPfS_S_i'
GPGPU-Sim uArch: Shader 20 bind to kernel 2 '_Z17fdtd_step2_kernelPfS_S_i'
GPGPU-Sim uArch: Shader 21 bind to kernel 2 '_Z17fdtd_step2_kernelPfS_S_i'
GPGPU-Sim uArch: Shader 22 bind to kernel 2 '_Z17fdtd_step2_kernelPfS_S_i'
GPGPU-Sim uArch: Shader 23 bind to kernel 2 '_Z17fdtd_step2_kernelPfS_S_i'
GPGPU-Sim uArch: Shader 24 bind to kernel 2 '_Z17fdtd_step2_kernelPfS_S_i'
GPGPU-Sim uArch: Shader 25 bind to kernel 2 '_Z17fdtd_step2_kernelPfS_S_i'
GPGPU-Sim uArch: Shader 26 bind to kernel 2 '_Z17fdtd_step2_kernelPfS_S_i'
GPGPU-Sim uArch: Shader 27 bind to kernel 2 '_Z17fdtd_step2_kernelPfS_S_i'
GPGPU-Sim uArch: Shader 0 bind to kernel 2 '_Z17fdtd_step2_kernelPfS_S_i'
GPGPU-Sim uArch: Shader 1 bind to kernel 2 '_Z17fdtd_step2_kernelPfS_S_i'
GPGPU-Sim uArch: Shader 2 bind to kernel 2 '_Z17fdtd_step2_kernelPfS_S_i'
GPGPU-Sim uArch: Shader 3 bind to kernel 2 '_Z17fdtd_step2_kernelPfS_S_i'
GPGPU-Sim uArch: Shader 4 bind to kernel 2 '_Z17fdtd_step2_kernelPfS_S_i'
GPGPU-Sim uArch: Shader 5 bind to kernel 2 '_Z17fdtd_step2_kernelPfS_S_i'
GPGPU-Sim uArch: Shader 6 bind to kernel 2 '_Z17fdtd_step2_kernelPfS_S_i'
GPGPU-Sim uArch: Shader 7 bind to kernel 2 '_Z17fdtd_step2_kernelPfS_S_i'
GPGPU-Sim uArch: Shader 8 bind to kernel 2 '_Z17fdtd_step2_kernelPfS_S_i'
GPGPU-Sim uArch: Shader 9 bind to kernel 2 '_Z17fdtd_step2_kernelPfS_S_i'
GPGPU-Sim uArch: Shader 10 bind to kernel 2 '_Z17fdtd_step2_kernelPfS_S_i'
GPGPU-Sim uArch: Shader 11 bind to kernel 2 '_Z17fdtd_step2_kernelPfS_S_i'
GPGPU-Sim uArch: Shader 12 bind to kernel 2 '_Z17fdtd_step2_kernelPfS_S_i'
GPGPU-Sim uArch: Shader 13 bind to kernel 2 '_Z17fdtd_step2_kernelPfS_S_i'
GPGPU-Sim uArch: Shader 14 bind to kernel 2 '_Z17fdtd_step2_kernelPfS_S_i'
GPGPU-Sim uArch: Shader 15 bind to kernel 2 '_Z17fdtd_step2_kernelPfS_S_i'
GPGPU-Sim uArch: Shader 16 bind to kernel 2 '_Z17fdtd_step2_kernelPfS_S_i'
GPGPU-Sim uArch: Shader 15 bind to kernel 2 '_Z17fdtd_step2_kernelPfS_S_i'
GPGPU-Sim uArch: Shader 24 bind to kernel 2 '_Z17fdtd_step2_kernelPfS_S_i'
GPGPU-Sim uArch: Shader 8 bind to kernel 2 '_Z17fdtd_step2_kernelPfS_S_i'
GPGPU-Sim uArch: Shader 11 bind to kernel 2 '_Z17fdtd_step2_kernelPfS_S_i'
GPGPU-Sim uArch: Shader 15 bind to kernel 2 '_Z17fdtd_step2_kernelPfS_S_i'
GPGPU-Sim uArch: Shader 16 bind to kernel 2 '_Z17fdtd_step2_kernelPfS_S_i'
GPGPU-Sim uArch: Shader 17 bind to kernel 2 '_Z17fdtd_step2_kernelPfS_S_i'
GPGPU-Sim uArch: Shader 18 bind to kernel 2 '_Z17fdtd_step2_kernelPfS_S_i'
GPGPU-Sim uArch: Shader 19 bind to kernel 2 '_Z17fdtd_step2_kernelPfS_S_i'
GPGPU-Sim uArch: Shader 20 bind to kernel 2 '_Z17fdtd_step2_kernelPfS_S_i'
GPGPU-Sim uArch: Shader 21 bind to kernel 2 '_Z17fdtd_step2_kernelPfS_S_i'
[...]
F: 10535614----T: 10960081 	 	 	 Kl: 11 	 Sm: 0 	 T: kernel_launch(286.608368)
F: 10559198----T: 10561998 	 St: c0210000 Sz: 8192 	 Sm: 0 	 T: memcpy_h2d(1.890614)
F: 10561998----T: 10569778 	 St: c0212000 Sz: 57344 	 Sm: 0 	 T: memcpy_h2d(5.253207)
F: 10570593----T: 10573198 	 St: c0220000 Sz: 4096 	 Sm: 0 	 T: memcpy_h2d(1.758947)
F: 10571464----T: 10580166 	 St: c0730000 Sz: 65536 	 Sm: 0 	 T: write_back(5.875760)
F: 10573198----T: 10581438 	 St: c0221000 Sz: 61440 	 Sm: 0 	 T: memcpy_h2d(5.563808)
F: 10580166----T: 10588868 	 St: c0740000 Sz: 65536 	 Sm: 0 	 T: write_back(5.875760)
F: 10581438----T: 10584043 	 St: c0230000 Sz: 4096 	 Sm: 0 	 T: memcpy_h2d(1.758947)
F: 10584043----T: 10599738 	 St: c0231000 Sz: 126976 	 Sm: 0 	 T: memcpy_h2d(10.597569)
F: 10588869----T: 10597571 	 St: c0750000 Sz: 65536 	 Sm: 0 	 T: write_back(5.875760)
F: 10599738----T: 10602538 	 St: c0250000 Sz: 8192 	 Sm: 0 	 T: memcpy_h2d(1.890614)
F: 10602538----T: 10632791 	 St: c0252000 Sz: 253952 	 Sm: 0 	 T: memcpy_h2d(20.427414)
F: 10636230----T: 10639316 	 St: c0290000 Sz: 12288 	 Sm: 0 	 T: memcpy_h2d(2.083727)
F: 10636230----T: 10644932 	 St: c0780000 Sz: 65536 	 Sm: 0 	 T: write_back(5.875760)
F: 10644932----T: 10661095 	 St: c0710000 Sz: 131072 	 Sm: 0 	 T: write_back(10.913572)
F: 10661095----T: 10677258 	 St: c0760000 Sz: 131072 	 Sm: 0 	 T: write_back(10.913572)
F: 10677258----T: 10737153 	 St: c0293000 Sz: 512000 	 Sm: 0 	 T: memcpy_h2d(40.442268)
F: 10677258----T: 10738565 	 St: c0790000 Sz: 524288 	 Sm: 0 	 T: write_back(41.395679)
F: 10743500----T: 10746105 	 St: c0310000 Sz: 4096 	 Sm: 0 	 T: memcpy_h2d(1.758947)
F: 10743500----T: 10752202 	 St: c0830000 Sz: 65536 	 Sm: 0 	 T: write_back(5.875760)
F: 10752202----T: 10760904 	 St: c0840000 Sz: 65536 	 Sm: 0 	 T: write_back(5.875760)
F: 10760904----T: 10769606 	 St: c0850000 Sz: 65536 	 Sm: 0 	 T: write_back(5.875760)
F: 10769606----T: 10785769 	 St: c0810000 Sz: 131072 	 Sm: 0 	 T: write_back(10.913572)
F: 10785769----T: 10809441 	 St: c0860000 Sz: 196608 	 Sm: 0 	 T: write_back(15.983795)
F: 10809441----T: 10930530 	 St: c0311000 Sz: 1044480 	 Sm: 0 	 T: memcpy_h2d(81.761650)
F: 10809441----T: 10870748 	 St: c0890000 Sz: 524288 	 Sm: 0 	 T: write_back(41.395679)
F: 11182231----T: 12491348 	 	 	 Kl: 12 	 Sm: 0 	 T: kernel_launch(883.941284)
F: 11198098----T: 11200703 	 St: c0710000 Sz: 4096 	 Sm: 0 	 T: memcpy_h2d(1.758947)
F: 11198098----T: 11206800 	 St: c0e30000 Sz: 65536 	 Sm: 0 	 T: write_back(5.875760)
F: 11206800----T: 11215502 	 St: c0e40000 Sz: 65536 	 Sm: 0 	 T: write_back(5.875760)
F: 11215502----T: 11224204 	 St: c0e50000 Sz: 65536 	 Sm: 0 	 T: write_back(5.875760)
F: 11224204----T: 11240367 	 St: c0e10000 Sz: 131072 	 Sm: 0 	 T: write_back(10.913572)
F: 11240367----T: 11264039 	 St: c0e60000 Sz: 196608 	 Sm: 0 	 T: write_back(15.983795)
F: 11264039----T: 11385128 	 St: c0711000 Sz: 1044480 	 Sm: 0 	 T: memcpy_h2d(81.761650)
F: 11264039----T: 11325346 	 St: c0e90000 Sz: 524288 	 Sm: 0 	 T: write_back(41.395679)
F: 11399984----T: 11402589 	 St: c0810000 Sz: 4096 	 Sm: 0 	 T: memcpy_h2d(1.758947)
F: 11399984----T: 11521544 	 St: c0f10000 Sz: 1048576 	 Sm: 0 	 T: write_back(82.079674)
F: 11402589----T: 11523678 	 St: c0811000 Sz: 1044480 	 Sm: 0 	 T: memcpy_h2d(81.761650)
F: 11524177----T: 11526782 	 St: c0e10000 Sz: 4096 	 Sm: 0 	 T: memcpy_h2d(1.758947)
F: 11526782----T: 11535022 	 St: c0e11000 Sz: 61440 	 Sm: 0 	 T: memcpy_h2d(5.563808)
F: 11535022----T: 11540537 	 St: c0e20000 Sz: 36864 	 Sm: 0 	 T: memcpy_h2d(3.723835)
F: 11540537----T: 11545178 	 St: c0e29000 Sz: 28672 	 Sm: 0 	 T: memcpy_h2d(3.133693)
F: 11545178----T: 11548990 	 St: c0e30000 Sz: 20480 	 Sm: 0 	 T: memcpy_h2d(2.573936)
F: 11548990----T: 11562812 	 St: c0e35000 Sz: 110592 	 Sm: 0 	 T: memcpy_h2d(9.332883)
F: 11565031----T: 11570105 	 St: c0e50000 Sz: 32768 	 Sm: 0 	 T: memcpy_h2d(3.426064)
F: 11565031----T: 11573733 	 St: c10c0000 Sz: 65536 	 Sm: 0 	 T: write_back(5.875760)
F: 11573733----T: 11582435 	 St: c10d0000 Sz: 65536 	 Sm: 0 	 T: write_back(5.875760)
F: 11582436----T: 11609868 	 St: c0e58000 Sz: 229376 	 Sm: 0 	 T: memcpy_h2d(18.522619)
F: 11582436----T: 11591138 	 St: c10e0000 Sz: 65536 	 Sm: 0 	 T: write_back(5.875760)
F: 11612373----T: 11615459 	 St: c0e90000 Sz: 12288 	 Sm: 0 	 T: memcpy_h2d(2.083727)
F: 11612373----T: 11636045 	 St: c1090000 Sz: 196608 	 Sm: 0 	 T: write_back(15.983795)
F: 11636045----T: 11652208 	 St: c10f0000 Sz: 131072 	 Sm: 0 	 T: write_back(10.913572)
F: 11652208----T: 11660910 	 St: c1130000 Sz: 65536 	 Sm: 0 	 T: write_back(5.875760)
F: 11660910----T: 11669612 	 St: c1140000 Sz: 65536 	 Sm: 0 	 T: write_back(5.875760)
F: 11669613----T: 11729508 	 St: c0e93000 Sz: 512000 	 Sm: 0 	 T: memcpy_h2d(40.442268)
F: 11669613----T: 11678315 	 St: c1150000 Sz: 65536 	 Sm: 0 	 T: write_back(5.875760)
F: 11735707----T: 11738312 	 St: c0f10000 Sz: 4096 	 Sm: 0 	 T: memcpy_h2d(1.758947)
F: 11735707----T: 11744409 	 St: c1170000 Sz: 65536 	 Sm: 0 	 T: write_back(5.875760)
F: 11744409----T: 11760572 	 St: c1110000 Sz: 131072 	 Sm: 0 	 T: write_back(10.913572)
F: 11760572----T: 11769274 	 St: c1160000 Sz: 65536 	 Sm: 0 	 T: write_back(5.875760)
F: 11769274----T: 11777976 	 St: c1180000 Sz: 65536 	 Sm: 0 	 T: write_back(5.875760)
F: 11777976----T: 11786678 	 St: c05b0000 Sz: 65536 	 Sm: 0 	 T: write_back(5.875760)
F: 11786678----T: 11795380 	 St: c05c0000 Sz: 65536 	 Sm: 0 	 T: write_back(5.875760)
F: 11795380----T: 11804082 	 St: c05d0000 Sz: 65536 	 Sm: 0 	 T: write_back(5.875760)
F: 11804082----T: 11820245 	 St: c0590000 Sz: 131072 	 Sm: 0 	 T: write_back(10.913572)
F: 11820245----T: 11843917 	 St: c05e0000 Sz: 196608 	 Sm: 0 	 T: write_back(15.983795)
F: 11843917----T: 11852619 	 St: c0410000 Sz: 65536 	 Sm: 0 	 T: write_back(5.875760)
F: 11852619----T: 11861321 	 St: c0420000 Sz: 65536 	 Sm: 0 	 T: write_back(5.875760)
F: 11861322----T: 11982411 	 St: c0f11000 Sz: 1044480 	 Sm: 0 	 T: memcpy_h2d(81.761650)
F: 11861322----T: 11877485 	 St: c0430000 Sz: 131072 	 Sm: 0 	 T: write_back(10.913572)
F: 11996818----T: 11999618 	 St: c0410000 Sz: 8192 	 Sm: 0 	 T: memcpy_h2d(1.890614)
F: 11996818----T: 12005520 	 St: c0480000 Sz: 65536 	 Sm: 0 	 T: write_back(5.875760)
F: 12005520----T: 12014222 	 St: c0490000 Sz: 65536 	 Sm: 0 	 T: write_back(5.875760)
F: 12014222----T: 12044475 	 St: c0412000 Sz: 253952 	 Sm: 0 	 T: memcpy_h2d(20.427414)
F: 12014222----T: 12022924 	 St: c0470000 Sz: 65536 	 Sm: 0 	 T: write_back(5.875760)
F: 12022924----T: 12031626 	 St: c04a0000 Sz: 65536 	 Sm: 0 	 T: write_back(5.875760)
F: 12031626----T: 12047789 	 St: c04b0000 Sz: 131072 	 Sm: 0 	 T: write_back(10.913572)
F: 12047789----T: 12063952 	 St: c0450000 Sz: 131072 	 Sm: 0 	 T: write_back(10.913572)
F: 12063952----T: 12125259 	 St: c0590000 Sz: 524288 	 Sm: 0 	 T: memcpy_h2d(41.395679)
F: 12063952----T: 12095145 	 St: c04d0000 Sz: 262144 	 Sm: 0 	 T: write_back(21.062120)
F: 12126444----T: 12129049 	 St: c0450000 Sz: 4096 	 Sm: 0 	 T: memcpy_h2d(1.758947)
F: 12126444----T: 12135146 	 St: c0740000 Sz: 65536 	 Sm: 0 	 T: write_back(5.875760)
F: 12135146----T: 12143848 	 St: c0750000 Sz: 65536 	 Sm: 0 	 T: write_back(5.875760)
F: 12143848----T: 12152550 	 St: c0730000 Sz: 65536 	 Sm: 0 	 T: write_back(5.875760)
F: 12152550----T: 12161252 	 St: c0760000 Sz: 65536 	 Sm: 0 	 T: write_back(5.875760)
F: 12161252----T: 12177415 	 St: c0710000 Sz: 131072 	 Sm: 0 	 T: write_back(10.913572)
F: 12177415----T: 12193578 	 St: c0770000 Sz: 131072 	 Sm: 0 	 T: write_back(10.913572)
F: 12193578----T: 12284539 	 St: c0451000 Sz: 782336 	 Sm: 0 	 T: memcpy_h2d(61.418636)
F: 12193578----T: 12254885 	 St: c0790000 Sz: 524288 	 Sm: 0 	 T: write_back(41.395679)
F: 12290100----T: 12292900 	 St: c1090000 Sz: 8192 	 Sm: 0 	 T: memcpy_h2d(1.890614)
F: 12290100----T: 12298802 	 St: c0c30000 Sz: 65536 	 Sm: 0 	 T: write_back(5.875760)
F: 12298802----T: 12307504 	 St: c0c40000 Sz: 65536 	 Sm: 0 	 T: write_back(5.875760)
F: 12307504----T: 12316206 	 St: c0c50000 Sz: 65536 	 Sm: 0 	 T: write_back(5.875760)
F: 12316206----T: 12332369 	 St: c0c10000 Sz: 131072 	 Sm: 0 	 T: write_back(10.913572)
F: 12332369----T: 12356041 	 St: c0c60000 Sz: 196608 	 Sm: 0 	 T: write_back(15.983795)
F: 12356041----T: 12476659 	 St: c1092000 Sz: 1040384 	 Sm: 0 	 T: memcpy_h2d(81.443619)
F: 12356041----T: 12417348 	 St: c0c90000 Sz: 524288 	 Sm: 0 	 T: write_back(41.395679)
F: 12713498----T: 13302001 	 	 	 Kl: 13 	 Sm: 0 	 T: kernel_launch(397.368683)
F: 12714349----T: 12717149 	 St: c0c10000 Sz: 8192 	 Sm: 0 	 T: memcpy_h2d(1.890614)
F: 12714349----T: 12723051 	 St: c0d40000 Sz: 65536 	 Sm: 0 	 T: write_back(5.875760)
F: 12723051----T: 12731753 	 St: c0d50000 Sz: 65536 	 Sm: 0 	 T: write_back(5.875760)
F: 12731753----T: 12740455 	 St: c0d60000 Sz: 65536 	 Sm: 0 	 T: write_back(5.875760)
F: 12740455----T: 12749157 	 St: c0d30000 Sz: 65536 	 Sm: 0 	 T: write_back(5.875760)
F: 12749157----T: 12765320 	 St: c0d10000 Sz: 131072 	 Sm: 0 	 T: write_back(10.913572)
F: 12765320----T: 12781483 	 St: c0d70000 Sz: 131072 	 Sm: 0 	 T: write_back(10.913572)
F: 12781483----T: 12902101 	 St: c0c12000 Sz: 1040384 	 Sm: 0 	 T: memcpy_h2d(81.443619)
F: 12781483----T: 12842790 	 St: c0d90000 Sz: 524288 	 Sm: 0 	 T: write_back(41.395679)
F: 12911128----T: 12913733 	 St: c0d10000 Sz: 4096 	 Sm: 0 	 T: memcpy_h2d(1.758947)
F: 12911128----T: 12919830 	 St: c0340000 Sz: 65536 	 Sm: 0 	 T: write_back(5.875760)
F: 12919830----T: 12928532 	 St: c0350000 Sz: 65536 	 Sm: 0 	 T: write_back(5.875760)
F: 12928532----T: 12937234 	 St: c0370000 Sz: 65536 	 Sm: 0 	 T: write_back(5.875760)
F: 12937234----T: 12945936 	 St: c0330000 Sz: 65536 	 Sm: 0 	 T: write_back(5.875760)
F: 12945936----T: 12962099 	 St: c0310000 Sz: 131072 	 Sm: 0 	 T: write_back(10.913572)
F: 12962099----T: 12970801 	 St: c0360000 Sz: 65536 	 Sm: 0 	 T: write_back(5.875760)
F: 12970801----T: 12979503 	 St: c0380000 Sz: 65536 	 Sm: 0 	 T: write_back(5.875760)
F: 12979503----T: 13100592 	 St: c0d11000 Sz: 1044480 	 Sm: 0 	 T: memcpy_h2d(81.761650)
F: 12979503----T: 13040810 	 St: c0390000 Sz: 524288 	 Sm: 0 	 T: write_back(41.395679)
F: 13040810----T: 13049512 	 St: c0810000 Sz: 65536 	 Sm: 0 	 T: write_back(5.875760)
F: 13049512----T: 13058214 	 St: c0820000 Sz: 65536 	 Sm: 0 	 T: write_back(5.875760)
F: 13058214----T: 13074377 	 St: c0830000 Sz: 131072 	 Sm: 0 	 T: write_back(10.913572)
F: 13074377----T: 13195937 	 St: c0210000 Sz: 1048576 	 Sm: 0 	 T: write_back(82.079674)
F: 13100592----T: 13103197 	 St: c0710000 Sz: 4096 	 Sm: 0 	 T: memcpy_h2d(1.758947)
F: 13103197----T: 13224286 	 St: c0711000 Sz: 1044480 	 Sm: 0 	 T: memcpy_h2d(81.761650)
F: 13233969----T: 13237055 	 St: c0810000 Sz: 12288 	 Sm: 0 	 T: memcpy_h2d(2.083727)
F: 13237055----T: 13266838 	 St: c0813000 Sz: 249856 	 Sm: 0 	 T: memcpy_h2d(20.110062)
F: 13524151----T: 13947154 	 	 	 Kl: 14 	 Sm: 0 	 T: kernel_launch(285.619843)
F: 13547518----T: 13550318 	 St: c0210000 Sz: 8192 	 Sm: 0 	 T: memcpy_h2d(1.890614)
F: 13550318----T: 13558098 	 St: c0212000 Sz: 57344 	 Sm: 0 	 T: memcpy_h2d(5.253207)
F: 13558740----T: 13561345 	 St: c0220000 Sz: 4096 	 Sm: 0 	 T: memcpy_h2d(1.758947)
F: 13559865----T: 13568567 	 St: c0730000 Sz: 65536 	 Sm: 0 	 T: write_back(5.875760)
F: 13561345----T: 13569585 	 St: c0221000 Sz: 61440 	 Sm: 0 	 T: memcpy_h2d(5.563808)
F: 13568567----T: 13577269 	 St: c0740000 Sz: 65536 	 Sm: 0 	 T: write_back(5.875760)
F: 13569585----T: 13572190 	 St: c0230000 Sz: 4096 	 Sm: 0 	 T: memcpy_h2d(1.758947)
F: 13572190----T: 13587885 	 St: c0231000 Sz: 126976 	 Sm: 0 	 T: memcpy_h2d(10.597569)
F: 13577270----T: 13585972 	 St: c0750000 Sz: 65536 	 Sm: 0 	 T: write_back(5.875760)
F: 13587885----T: 13591315 	 St: c0250000 Sz: 16384 	 Sm: 0 	 T: memcpy_h2d(2.316003)
F: 13591315----T: 13620627 	 St: c0254000 Sz: 245760 	 Sm: 0 	 T: memcpy_h2d(19.792032)
F: 13624493----T: 13627098 	 St: c0290000 Sz: 4096 	 Sm: 0 	 T: memcpy_h2d(1.758947)
F: 13624493----T: 13633195 	 St: c0780000 Sz: 65536 	 Sm: 0 	 T: write_back(5.875760)
F: 13633195----T: 13649358 	 St: c0710000 Sz: 131072 	 Sm: 0 	 T: write_back(10.913572)
F: 13649358----T: 13665521 	 St: c0760000 Sz: 131072 	 Sm: 0 	 T: write_back(10.913572)
F: 13665521----T: 13726357 	 St: c0291000 Sz: 520192 	 Sm: 0 	 T: memcpy_h2d(41.077652)
F: 13665521----T: 13726828 	 St: c0790000 Sz: 524288 	 Sm: 0 	 T: write_back(41.395679)
F: 13730956----T: 13733561 	 St: c0310000 Sz: 4096 	 Sm: 0 	 T: memcpy_h2d(1.758947)
F: 13730956----T: 13739658 	 St: c0840000 Sz: 65536 	 Sm: 0 	 T: write_back(5.875760)
F: 13739658----T: 13748360 	 St: c0830000 Sz: 65536 	 Sm: 0 	 T: write_back(5.875760)
F: 13748360----T: 13757062 	 St: c0850000 Sz: 65536 	 Sm: 0 	 T: write_back(5.875760)
F: 13757062----T: 13773225 	 St: c0810000 Sz: 131072 	 Sm: 0 	 T: write_back(10.913572)
F: 13773225----T: 13796897 	 St: c0860000 Sz: 196608 	 Sm: 0 	 T: write_back(15.983795)
F: 13796897----T: 13917986 	 St: c0311000 Sz: 1044480 	 Sm: 0 	 T: memcpy_h2d(81.761650)
F: 13796897----T: 13858204 	 St: c0890000 Sz: 524288 	 Sm: 0 	 T: write_back(41.395679)
F: 14169304----T: 15466310 	 	 	 Kl: 15 	 Sm: 0 	 T: kernel_launch(875.763672)
F: 14185212----T: 14189431 	 St: c0710000 Sz: 24576 	 Sm: 0 	 T: memcpy_h2d(2.848751)
F: 14185212----T: 14193914 	 St: c0e30000 Sz: 65536 	 Sm: 0 	 T: write_back(5.875760)
F: 14193914----T: 14202616 	 St: c0e40000 Sz: 65536 	 Sm: 0 	 T: write_back(5.875760)
F: 14202616----T: 14211318 	 St: c0e50000 Sz: 65536 	 Sm: 0 	 T: write_back(5.875760)
F: 14211318----T: 14227481 	 St: c0e10000 Sz: 131072 	 Sm: 0 	 T: write_back(10.913572)
F: 14227481----T: 14251153 	 St: c0e60000 Sz: 196608 	 Sm: 0 	 T: write_back(15.983795)
F: 14251153----T: 14369888 	 St: c0716000 Sz: 1024000 	 Sm: 0 	 T: memcpy_h2d(80.172180)
F: 14251153----T: 14312460 	 St: c0e90000 Sz: 524288 	 Sm: 0 	 T: write_back(41.395679)
F: 14384517----T: 14387603 	 St: c0810000 Sz: 12288 	 Sm: 0 	 T: memcpy_h2d(2.083727)
F: 14384517----T: 14506077 	 St: c0f10000 Sz: 1048576 	 Sm: 0 	 T: write_back(82.079674)
F: 14387603----T: 14507751 	 St: c0813000 Sz: 1036288 	 Sm: 0 	 T: memcpy_h2d(81.126266)
F: 14507751----T: 14510356 	 St: c0e10000 Sz: 4096 	 Sm: 0 	 T: memcpy_h2d(1.758947)
F: 14510356----T: 14518596 	 St: c0e11000 Sz: 61440 	 Sm: 0 	 T: memcpy_h2d(5.563808)
F: 14520261----T: 14523061 	 St: c0e20000 Sz: 8192 	 Sm: 0 	 T: memcpy_h2d(1.890614)
F: 14521299----T: 14530001 	 St: c10b0000 Sz: 65536 	 Sm: 0 	 T: write_back(5.875760)
F: 14523061----T: 14530841 	 St: c0e22000 Sz: 57344 	 Sm: 0 	 T: memcpy_h2d(5.253207)
F: 14530001----T: 14538703 	 St: c10c0000 Sz: 65536 	 Sm: 0 	 T: write_back(5.875760)
F: 14530841----T: 14533927 	 St: c0e30000 Sz: 12288 	 Sm: 0 	 T: memcpy_h2d(2.083727)
F: 14533927----T: 14548685 	 St: c0e33000 Sz: 118784 	 Sm: 0 	 T: memcpy_h2d(9.964889)
F: 14538704----T: 14547406 	 St: c10d0000 Sz: 65536 	 Sm: 0 	 T: write_back(5.875760)
F: 14548685----T: 14551290 	 St: c0e50000 Sz: 4096 	 Sm: 0 	 T: memcpy_h2d(1.758947)
F: 14551290----T: 14582013 	 St: c0e51000 Sz: 258048 	 Sm: 0 	 T: memcpy_h2d(20.744766)
F: 14587159----T: 14590971 	 St: c0e90000 Sz: 20480 	 Sm: 0 	 T: memcpy_h2d(2.573936)
F: 14587159----T: 14595861 	 St: c10f0000 Sz: 65536 	 Sm: 0 	 T: write_back(5.875760)
F: 14595861----T: 14612024 	 St: c1090000 Sz: 131072 	 Sm: 0 	 T: write_back(10.913572)
F: 14612024----T: 14620726 	 St: c10e0000 Sz: 65536 	 Sm: 0 	 T: write_back(5.875760)
F: 14620726----T: 14629428 	 St: c1100000 Sz: 65536 	 Sm: 0 	 T: write_back(5.875760)
F: 14629428----T: 14638130 	 St: c1130000 Sz: 65536 	 Sm: 0 	 T: write_back(5.875760)
F: 14638130----T: 14646832 	 St: c1140000 Sz: 65536 	 Sm: 0 	 T: write_back(5.875760)
F: 14646833----T: 14705786 	 St: c0e95000 Sz: 503808 	 Sm: 0 	 T: memcpy_h2d(39.806213)
F: 14646833----T: 14655535 	 St: c1150000 Sz: 65536 	 Sm: 0 	 T: write_back(5.875760)
F: 14711685----T: 14715904 	 St: c0f10000 Sz: 24576 	 Sm: 0 	 T: memcpy_h2d(2.848751)
F: 14711685----T: 14720387 	 St: c1170000 Sz: 65536 	 Sm: 0 	 T: write_back(5.875760)
F: 14720387----T: 14736550 	 St: c1110000 Sz: 131072 	 Sm: 0 	 T: write_back(10.913572)
F: 14736550----T: 14745252 	 St: c1160000 Sz: 65536 	 Sm: 0 	 T: write_back(5.875760)
F: 14745252----T: 14753954 	 St: c1180000 Sz: 65536 	 Sm: 0 	 T: write_back(5.875760)
F: 14753954----T: 14762656 	 St: c05b0000 Sz: 65536 	 Sm: 0 	 T: write_back(5.875760)
F: 14762656----T: 14771358 	 St: c05c0000 Sz: 65536 	 Sm: 0 	 T: write_back(5.875760)
F: 14771358----T: 14780060 	 St: c05d0000 Sz: 65536 	 Sm: 0 	 T: write_back(5.875760)
F: 14780060----T: 14796223 	 St: c0590000 Sz: 131072 	 Sm: 0 	 T: write_back(10.913572)
F: 14796223----T: 14819895 	 St: c05e0000 Sz: 196608 	 Sm: 0 	 T: write_back(15.983795)
F: 14819895----T: 14828597 	 St: c0410000 Sz: 65536 	 Sm: 0 	 T: write_back(5.875760)
F: 14828597----T: 14837299 	 St: c0420000 Sz: 65536 	 Sm: 0 	 T: write_back(5.875760)
F: 14837300----T: 14956035 	 St: c0f16000 Sz: 1024000 	 Sm: 0 	 T: memcpy_h2d(80.172180)
F: 14837300----T: 14853463 	 St: c0430000 Sz: 131072 	 Sm: 0 	 T: write_back(10.913572)
F: 14969208----T: 14972008 	 St: c0410000 Sz: 8192 	 Sm: 0 	 T: memcpy_h2d(1.890614)
F: 14969208----T: 14977910 	 St: c0480000 Sz: 65536 	 Sm: 0 	 T: write_back(5.875760)
F: 14977910----T: 14986612 	 St: c0490000 Sz: 65536 	 Sm: 0 	 T: write_back(5.875760)
F: 14986612----T: 15016865 	 St: c0412000 Sz: 253952 	 Sm: 0 	 T: memcpy_h2d(20.427414)
F: 14986612----T: 14995314 	 St: c0470000 Sz: 65536 	 Sm: 0 	 T: write_back(5.875760)
F: 14995314----T: 15004016 	 St: c04a0000 Sz: 65536 	 Sm: 0 	 T: write_back(5.875760)
F: 15004016----T: 15020179 	 St: c04b0000 Sz: 131072 	 Sm: 0 	 T: write_back(10.913572)
F: 15020179----T: 15036342 	 St: c0450000 Sz: 131072 	 Sm: 0 	 T: write_back(10.913572)
F: 15036342----T: 15097649 	 St: c0590000 Sz: 524288 	 Sm: 0 	 T: memcpy_h2d(41.395679)
F: 15036342----T: 15067535 	 St: c04d0000 Sz: 262144 	 Sm: 0 	 T: write_back(21.062120)
F: 15101932----T: 15104537 	 St: c0450000 Sz: 4096 	 Sm: 0 	 T: memcpy_h2d(1.758947)
F: 15101932----T: 15110634 	 St: c0740000 Sz: 65536 	 Sm: 0 	 T: write_back(5.875760)
F: 15110634----T: 15119336 	 St: c0750000 Sz: 65536 	 Sm: 0 	 T: write_back(5.875760)
F: 15119336----T: 15128038 	 St: c0730000 Sz: 65536 	 Sm: 0 	 T: write_back(5.875760)
F: 15128038----T: 15136740 	 St: c0760000 Sz: 65536 	 Sm: 0 	 T: write_back(5.875760)
F: 15136740----T: 15152903 	 St: c0710000 Sz: 131072 	 Sm: 0 	 T: write_back(10.913572)
F: 15152903----T: 15169066 	 St: c0770000 Sz: 131072 	 Sm: 0 	 T: write_back(10.913572)
F: 15169066----T: 15260027 	 St: c0451000 Sz: 782336 	 Sm: 0 	 T: memcpy_h2d(61.418636)
F: 15169066----T: 15230373 	 St: c0790000 Sz: 524288 	 Sm: 0 	 T: write_back(41.395679)
F: 15264485----T: 15267090 	 St: c1090000 Sz: 4096 	 Sm: 0 	 T: memcpy_h2d(1.758947)
F: 15264485----T: 15273187 	 St: c0c30000 Sz: 65536 	 Sm: 0 	 T: write_back(5.875760)
F: 15273187----T: 15281889 	 St: c0c40000 Sz: 65536 	 Sm: 0 	 T: write_back(5.875760)
F: 15281889----T: 15290591 	 St: c0c50000 Sz: 65536 	 Sm: 0 	 T: write_back(5.875760)
F: 15290591----T: 15306754 	 St: c0c10000 Sz: 131072 	 Sm: 0 	 T: write_back(10.913572)
F: 15306754----T: 15330426 	 St: c0c60000 Sz: 196608 	 Sm: 0 	 T: write_back(15.983795)
F: 15330426----T: 15451515 	 St: c1091000 Sz: 1044480 	 Sm: 0 	 T: memcpy_h2d(81.761650)
F: 15330426----T: 15391733 	 St: c0c90000 Sz: 524288 	 Sm: 0 	 T: write_back(41.395679)
Tot_prefetch_time: 0(cycle), 0.000000(us)
Tot_kernel_exec_time: 12134060(cycle), 8193.153320(us)
Tot_kernel_exec_time_and_fault_time: 21264425(cycle), 14358.152344(us)
Tot_memcpy_h2d_time: 8245102(cycle), 5567.253418(us)
Tot_memcpy_d2h_time: 0(cycle), 0.000000(us)
Tot_memcpy_time: 8245102(cycle), 5567.253418(us)
Tot_devicesync_time: 0(cycle), 0.000000(us)
Tot_writeback_time: 6283729(cycle), 4242.895996(us)
Tot_dma_time: 0(cycle), 0.000000(us)
Tot_memcpy_d2h_sync_wb_time: 6283729(cycle), 4242.895996(us)
GPGPU-Sim: *** exit detected ***
