

        *** GPGPU-Sim Simulator Version 3.2.2  [build gpgpu-sim_git-commit-1c1adf09f9d1bccf70ff97255c2b46b40ff0e800_modified_0] ***


GPGPU-Sim PTX: simulation mode 0 (can change with PTX_SIM_MODE_FUNC environment variable:
               1=functional simulation only, 0=detailed performance simulator)
GPGPU-Sim: Configuration options:

-network_mode                           1 # Interconnection network mode
-inter_config_file   config_fermi_islip.icnt # Interconnection network config file
-gpgpu_ptx_use_cuobjdump                    1 # Use cuobjdump to extract ptx and sass from binaries
-gpgpu_experimental_lib_support                    0 # Try to extract code from cuda libraries [Broken because of unknown cudaGetExportTable]
-gpgpu_ptx_convert_to_ptxplus                    0 # Convert SASS (native ISA) to ptxplus and run ptxplus
-gpgpu_ptx_force_max_capability                   20 # Force maximum compute capability
-gpgpu_ptx_inst_debug_to_file                    0 # Dump executed instructions' debug information to file
-gpgpu_ptx_inst_debug_file       inst_debug.txt # Executed instructions' debug output file
-gpgpu_ptx_inst_debug_thread_uid                    1 # Thread UID for executed instructions' debug output
-gpgpu_simd_model                       1 # 1 = post-dominator
-gpgpu_shader_core_pipeline              2048:32 # shader core pipeline config, i.e., {<nthread>:<warpsize>}
-gpgpu_tex_cache:l1  16:128:24,L:R:m:N:L,F:128:4,128:2 # per-shader L1 texture cache  (READ-ONLY) config  {<nsets>:<bsize>:<assoc>,<rep>:<wr>:<alloc>:<wr_alloc>,<mshr>:<N>:<merge>,<mq>:<rf>}
-gpgpu_const_cache:l1 128:64:2,L:R:f:N:L,A:2:64,4 # per-shader L1 constant memory cache  (READ-ONLY) config  {<nsets>:<bsize>:<assoc>,<rep>:<wr>:<alloc>:<wr_alloc>,<mshr>:<N>:<merge>,<mq>} 
-gpgpu_cache:il1     8:128:4,L:R:f:N:L,A:2:48,4 # shader L1 instruction cache config  {<nsets>:<bsize>:<assoc>,<rep>:<wr>:<alloc>:<wr_alloc>,<mshr>:<N>:<merge>,<mq>} 
-gpgpu_cache:dl1     64:128:6,L:L:m:N:H,A:128:8,8 # per-shader L1 data cache config  {<nsets>:<bsize>:<assoc>,<rep>:<wr>:<alloc>:<wr_alloc>,<mshr>:<N>:<merge>,<mq> | none}
-gpgpu_cache:dl1PrefL1                 none # per-shader L1 data cache config  {<nsets>:<bsize>:<assoc>,<rep>:<wr>:<alloc>:<wr_alloc>,<mshr>:<N>:<merge>,<mq> | none}
-gpgpu_cache:dl1PrefShared                 none # per-shader L1 data cache config  {<nsets>:<bsize>:<assoc>,<rep>:<wr>:<alloc>:<wr_alloc>,<mshr>:<N>:<merge>,<mq> | none}
-gmem_skip_L1D                          1 # global memory access skip L1D cache (implements -Xptxas -dlcm=cg, default=no skip)
-gpgpu_perfect_mem                      0 # enable perfect memory mode (no cache miss)
-n_regfile_gating_group                    4 # group of lanes that should be read/written together)
-gpgpu_clock_gated_reg_file                    0 # enable clock gated reg file for power calculations
-gpgpu_clock_gated_lanes                    0 # enable clock gated lanes for power calculations
-gpgpu_shader_registers                65536 # Number of registers per shader core. Limits number of concurrent CTAs. (default 8192)
-gpgpu_shader_cta                      32 # Maximum number of concurrent CTAs in shader (default 8)
-gpgpu_num_cta_barriers                   16 # Maximum number of named barriers per CTA (default 16)
-gpgpu_n_clusters                      28 # number of processing clusters
-gpgpu_n_cores_per_cluster                    1 # number of simd cores per cluster
-gpgpu_n_cluster_ejection_buffer_size                    8 # number of packets in ejection buffer
-gpgpu_n_ldst_response_buffer_size                    2 # number of response packets in ld/st unit ejection buffer
-gpgpu_shmem_size                   16384 # Size of shared memory per shader core (default 16kB)
-gpgpu_shmem_size                   98304 # Size of shared memory per shader core (default 16kB)
-gpgpu_shmem_size_PrefL1                16384 # Size of shared memory per shader core (default 16kB)
-gpgpu_shmem_size_PrefShared                16384 # Size of shared memory per shader core (default 16kB)
-gpgpu_shmem_num_banks                   32 # Number of banks in the shared memory in each shader core (default 16)
-gpgpu_shmem_limited_broadcast                    0 # Limit shared memory to do one broadcast per cycle (default on)
-gpgpu_shmem_warp_parts                    1 # Number of portions a warp is divided into for shared memory bank conflict check 
-gpgpu_warpdistro_shader                   -1 # Specify which shader core to collect the warp size distribution from
-gpgpu_warp_issue_shader                    0 # Specify which shader core to collect the warp issue distribution from
-gpgpu_local_mem_map                    1 # Mapping from local memory space address to simulated GPU physical address space (default = enabled)
-gpgpu_num_reg_banks                   32 # Number of register banks (default = 8)
-gpgpu_reg_bank_use_warp_id                    0 # Use warp ID in mapping registers to banks (default = off)
-gpgpu_operand_collector_num_units_sp                   20 # number of collector units (default = 4)
-gpgpu_operand_collector_num_units_sfu                    4 # number of collector units (default = 4)
-gpgpu_operand_collector_num_units_mem                    8 # number of collector units (default = 2)
-gpgpu_operand_collector_num_units_gen                    0 # number of collector units (default = 0)
-gpgpu_operand_collector_num_in_ports_sp                    4 # number of collector unit in ports (default = 1)
-gpgpu_operand_collector_num_in_ports_sfu                    1 # number of collector unit in ports (default = 1)
-gpgpu_operand_collector_num_in_ports_mem                    1 # number of collector unit in ports (default = 1)
-gpgpu_operand_collector_num_in_ports_gen                    0 # number of collector unit in ports (default = 0)
-gpgpu_operand_collector_num_out_ports_sp                    4 # number of collector unit in ports (default = 1)
-gpgpu_operand_collector_num_out_ports_sfu                    1 # number of collector unit in ports (default = 1)
-gpgpu_operand_collector_num_out_ports_mem                    1 # number of collector unit in ports (default = 1)
-gpgpu_operand_collector_num_out_ports_gen                    0 # number of collector unit in ports (default = 0)
-gpgpu_coalesce_arch                   13 # Coalescing arch (default = 13, anything else is off for now)
-gpgpu_num_sched_per_core                    2 # Number of warp schedulers per core
-gpgpu_max_insn_issue_per_warp                    2 # Max number of instructions that can be issued per warp in one cycle by scheduler
-gpgpu_simt_core_sim_order                    1 # Select the simulation order of cores in a cluster (0=Fix, 1=Round-Robin)
-gpgpu_pipeline_widths        4,1,1,4,1,1,6 # Pipeline widths ID_OC_SP,ID_OC_SFU,ID_OC_MEM,OC_EX_SP,OC_EX_SFU,OC_EX_MEM,EX_WB
-gpgpu_num_sp_units                     4 # Number of SP units (default=1)
-gpgpu_num_sfu_units                    1 # Number of SF units (default=1)
-gpgpu_num_mem_units                    1 # Number if ldst units (default=1) WARNING: not hooked up to anything
-gpgpu_scheduler                      gto # Scheduler configuration: < lrr | gto | two_level_active > If two_level_active:<num_active_warps>:<inner_prioritization>:<outer_prioritization>For complete list of prioritization values see shader.h enum scheduler_prioritization_typeDefault: gto
-gpgpu_concurrent_kernel_sm                    0 # Support concurrent kernels on a SM (default = disabled)
-tlb_size                            4096 # Number of tlb entries per SM.
-gpgpu_dram_scheduler                    1 # 0 = fifo, 1 = FR-FCFS (defaul)
-gpgpu_dram_partition_queues              8:8:8:8 # i2$:$2d:d2$:$2i
-l2_ideal                               0 # Use a ideal L2 cache that always hit
-gpgpu_cache:dl2     64:128:16,L:B:m:W:L,A:1024:1024,4:0,32 # unified banked L2 data cache config  {<nsets>:<bsize>:<assoc>,<rep>:<wr>:<alloc>:<wr_alloc>,<mshr>:<N>:<merge>,<mq>}
-gpgpu_cache:dl2_texture_only                    0 # L2 cache used for texture only
-gpgpu_n_mem                           11 # number of memory modules (e.g. memory controllers) in gpu
-gpgpu_n_sub_partition_per_mchannel                    2 # number of memory subpartition in each memory module
-gpgpu_n_mem_per_ctrlr                    1 # number of memory chips per memory controller
-gpgpu_memlatency_stat                   14 # track and display latency statistics 0x2 enables MC, 0x4 enables queue logs
-gpgpu_frfcfs_dram_sched_queue_size                   64 # 0 = unlimited (default); # entries per chip
-gpgpu_dram_return_queue_size                  116 # 0 = unlimited (default); # entries per chip
-gpgpu_dram_buswidth                    4 # default = 4 bytes (8 bytes per cycle at DDR)
-gpgpu_dram_burst_length                    8 # Burst length of each DRAM request (default = 4 data bus cycle)
-dram_data_command_freq_ratio                    4 # Frequency ratio between DRAM data bus and command bus (default = 2 times, i.e. DDR)
-gpgpu_dram_timing_opt nbk=16:CCD=2:RRD=6:RCD=12:RAS=28:RP=12:RC=40: CL=12:WL=4:CDLR=5:WR=12:nbkgrp=1:CCDL=0:RTPL=0 # DRAM timing parameters = {nbk:tCCD:tRRD:tRCD:tRAS:tRP:tRC:CL:WL:tCDLR:tWR:nbkgrp:tCCDL:tRTPL}
-rop_latency                          120 # ROP queue latency (default 85)
-dram_latency                         100 # DRAM latency (default 30)
-gpgpu_mem_addr_mapping dramid@8;00000000.00000000.00000000.00000000.0000RRRR.RRRRRRRR.RBBBCCCC.BCCSSSSS # mapping memory address to dram model {dramid@<start bit>;<memory address map>}
-gpgpu_mem_addr_test                    0 # run sweep test to check address mapping for aliased address
-gpgpu_mem_address_mask                    1 # 0 = old addressing mask, 1 = new addressing mask, 2 = new add. mask + flipped bank sel and chip sel bits
-gpuwattch_xml_file  gpuwattch_geforcegtx1080ti.xml # GPUWattch XML file
-power_simulation_enabled                    1 # Turn on power simulator (1=On, 0=Off)
-power_per_cycle_dump                    0 # Dump detailed power output each cycle
-power_trace_enabled                    0 # produce a file for the power trace (1=On, 0=Off)
-power_trace_zlevel                     6 # Compression level of the power trace output log (0=no comp, 9=highest)
-steady_power_levels_enabled                    0 # produce a file for the steady power levels (1=On, 0=Off)
-steady_state_definition                  8:4 # allowed deviation:number of samples
-gpgpu_max_cycle                        0 # terminates gpu simulation early (0 = no limit)
-gpgpu_max_insn                         0 # terminates gpu simulation early (0 = no limit)
-gpgpu_max_cta                          0 # terminates gpu simulation early (0 = no limit)
-gpgpu_runtime_stat                   500 # display runtime statistics such as dram utilization {<freq>:<flag>}
-liveness_message_freq                    1 # Minimum number of seconds between simulation liveness messages (0 = always print)
-gpgpu_flush_l1_cache                    0 # Flush L1 cache at the end of each kernel call
-gpgpu_flush_l2_cache                    0 # Flush L2 cache at the end of each kernel call
-gpgpu_deadlock_detect                    0 # Stop the simulation at deadlock (1=on (default), 0=off)
-gpgpu_ptx_instruction_classification                    0 # if enabled will classify ptx instruction types per kernel (Max 255 kernels now)
-gpgpu_ptx_sim_mode                     0 # Select between Performance (default) or Functional simulation (1)
-gpgpu_clock_domains 1481.0:2962.0:1481.0:2750.0 # Clock Domain Frequencies in MhZ {<Core Clock>:<ICNT Clock>:<L2 Clock>:<DRAM Clock>}
-gpgpu_max_concurrent_kernel                    8 # maximum kernels that can run concurrently on GPU
-gpgpu_cflog_interval                    0 # Interval between each snapshot in control flow logger
-visualizer_enabled                     0 # Turn on visualizer output (1=On, 0=Off)
-visualizer_outputfile                 NULL # Specifies the output log file for visualizer
-visualizer_zlevel                      6 # Compression level of the visualizer output log (0=no comp, 9=highest)
-trace_enabled                          0 # Turn on traces
-trace_components                    none # comma seperated list of traces to enable. Complete list found in trace_streams.tup. Default none
-trace_sampling_core                    0 # The core which is printed using CORE_DPRINTF. Default 0
-trace_sampling_memory_partition                   -1 # The memory partition which is printed using MEMPART_DPRINTF. Default -1 (i.e. all)
-gddr_size                      10.9091MB # Size of GDDR in MB/GB.(GLOBAL_HEAP_START, GLOBAL_HEAP_START + gddr_size) would be used for unmanged memory, (GLOBAL_HEAP_START + gddr_size, GLOBAL_HEAP_START + gddr_size*2) would be used for managed memory. 
-page_table_walk_latency                  100 # Average page table walk latency (in core cycle).
-eviction_policy                        1 # Select page eviction policy
-invalidate_clean                       0 # Should directly invalidate clean pages
-reserve_accessed_page_percent                   20 # Percentage of accessed pages reserved from eviction in hope that they will be accessed in next iteration.
-percentage_of_free_page_buffer                    0 # Percentage of free page buffer to trigger the page eviction.
-page_size                            4KB # GDDR page size, only 4KB/2MB avaliable.
-pcie_bandwidth                  16.0GB/s # PCI-e bandwidth per direction, in GB/s.
-enable_dma                             0 # Enable direct access to CPU memory
-multiply_dma_penalty                    2 # Oversubscription Multiplicative Penalty Factor for Adaptive DMA
-migrate_threshold                      8 # Access counter threshold for migrating the page from cpu to gpu
-sim_prof_enable                        1 # Enable gpgpu-sim profiler
-hardware_prefetch                      1 # Select gpgpu-sim hardware prefetcher
-hwprefetch_oversub                     1 # Select gpgpu-sim hardware prefetcher under over-subscription
-page_fault_latency                 66645 # Average fault latency (in core cycle).
-enable_accurate_simulation                    0 # Enable page fault functional simulation.
-enable_ptx_file_line_stats                    1 # Turn on PTX source line statistic profiling. (1 = On)
-ptx_line_stats_filename gpgpu_inst_stats.txt # Output file for PTX source line statistics.
-gpgpu_kernel_launch_latency               222150 # Kernel launch latency in cycles. Default: 0
-gpgpu_cdp_enabled                      0 # Turn on CDP
-save_embedded_ptx                      0 # saves ptx files embedded in binary as <n>.ptx
-keep                                   0 # keep intermediate files created by GPGPU-Sim when interfacing with external programs
-gpgpu_ptx_save_converted_ptxplus                    0 # Saved converted ptxplus to a file
-ptx_opcode_latency_int         4,13,4,5,145 # Opcode latencies for integers <ADD,MAX,MUL,MAD,DIV>Default 1,1,19,25,145
-ptx_opcode_latency_fp          4,13,4,5,39 # Opcode latencies for single precision floating points <ADD,MAX,MUL,MAD,DIV>Default 1,1,1,1,30
-ptx_opcode_latency_dp         8,19,8,8,330 # Opcode latencies for double precision floating points <ADD,MAX,MUL,MAD,DIV>Default 8,8,8,8,335
-ptx_opcode_initiation_int            1,2,2,2,8 # Opcode initiation intervals for integers <ADD,MAX,MUL,MAD,DIV>Default 1,1,4,4,32
-ptx_opcode_initiation_fp            1,2,1,1,4 # Opcode initiation intervals for single precision floating points <ADD,MAX,MUL,MAD,DIV>Default 1,1,1,1,5
-ptx_opcode_initiation_dp          1,2,1,1,130 # Opcode initiation intervals for double precision floating points <ADD,MAX,MUL,MAD,DIV>Default 8,8,8,8,130
-cdp_latency         7200,8000,100,12000,1600 # CDP API latency <cudaStreamCreateWithFlags, cudaGetParameterBufferV2_init_perWarp, cudaGetParameterBufferV2_perKernel, cudaLaunchDeviceV2_init_perWarp, cudaLaunchDevicV2_perKernel>Default 7200,8000,100,12000,1600
DRAM Timing Options:
nbk                                    16 # number of banks
CCD                                     2 # column to column delay
RRD                                     6 # minimal delay between activation of rows in different banks
RCD                                    12 # row to column delay
RAS                                    28 # time needed to activate row
RP                                     12 # time needed to precharge (deactivate) row
RC                                     40 # row cycle time
CDLR                                    5 # switching from write to read (changes tWTR)
WR                                     12 # last data-in to row precharge
CL                                     12 # CAS latency
WL                                      4 # Write latency
nbkgrp                                  1 # number of bank groups
CCDL                                    0 # column to column delay between accesses to different bank groups
RTPL                                    0 # read to precharge delay between accesses to different bank groups
Total number of memory sub partition = 22
addr_dec_mask[CHIP]  = 0000000000000000 	high:64 low:0
addr_dec_mask[BK]    = 0000000000007080 	high:15 low:7
addr_dec_mask[ROW]   = 000000000fff8000 	high:28 low:15
addr_dec_mask[COL]   = 0000000000000f7f 	high:12 low:0
addr_dec_mask[BURST] = 000000000000001f 	high:5 low:0
sub_partition_id_mask = 0000000000000080
GPGPU-Sim uArch: clock freqs: 1481000000.000000:2962000000.000000:1481000000.000000:2750000000.000000
GPGPU-Sim uArch: clock periods: 0.00000000067521944632:0.00000000033760972316:0.00000000067521944632:0.00000000036363636364
*** Initializing Memory Statistics ***
GPGPU-Sim uArch: interconnect node map (shaderID+MemID to icntID)
GPGPU-Sim uArch: Memory nodes ID start from index: 28
GPGPU-Sim uArch:    0   1   2   3   4   5   6
GPGPU-Sim uArch:    7   8   9  10  11  12  13
GPGPU-Sim uArch:   14  15  16  17  18  19  20
GPGPU-Sim uArch:   21  22  23  24  25  26  27
GPGPU-Sim uArch:   28  29  30  31  32  33  34
GPGPU-Sim uArch:   35  36  37  38  39  40  41
GPGPU-Sim uArch:   42  43  44  45  46  47  48
GPGPU-Sim uArch:   49
GPGPU-Sim uArch: interconnect node reverse map (icntID to shaderID+MemID)
GPGPU-Sim uArch: Memory nodes start from ID: 28
GPGPU-Sim uArch:    0   1   2   3   4   5   6
GPGPU-Sim uArch:    7   8   9  10  11  12  13
GPGPU-Sim uArch:   14  15  16  17  18  19  20
GPGPU-Sim uArch:   21  22  23  24  25  26  27
GPGPU-Sim uArch:   28  29  30  31  32  33  34
GPGPU-Sim uArch:   35  36  37  38  39  40  41
GPGPU-Sim uArch:   42  43  44  45  46  47  48
GPGPU-Sim uArch:   49
503228a84c5acce04febe5a767a6866d  /root/gpgpu-sim_UVMSmart/benchmarks/Managed/hotspot/hotspot
GPGPU-Sim uArch: performance model initialization complete.
GPGPU-Sim PTX: __cudaRegisterFatBinary, fat_cubin_handle = 1, filename=default
self exe links to: /root/gpgpu-sim_UVMSmart/benchmarks/Managed/hotspot/hotspot
Running md5sum using "md5sum /root/gpgpu-sim_UVMSmart/benchmarks/Managed/hotspot/hotspot "
Parsing file _cuobjdump_complete_output_s5OdYn
######### cuobjdump parser ########
## Adding new section ELF
Adding arch: sm_20
Adding identifier: default
## Adding new section ELF
Adding arch: sm_20
Adding identifier: default
## Adding new section PTX
Adding ptx filename: _cuobjdump_1.ptx
Adding arch: sm_20
Adding identifier: default
Done parsing!!!
GPGPU-Sim PTX: __cudaRegisterFunction _Z14calculate_tempiPfS_S_iiiiffffff : hostFun 0x0x401ae2, fat_cubin_handle = 1
GPGPU-Sim PTX: allocating shared region for "_Z14calculate_tempiPfS_S_iiiiffffff$__cuda_local_var_16165_39_non_const_temp_on_cuda" from 0x0 to 0x400 (shared memory space)
GPGPU-Sim PTX: allocating shared region for "_Z14calculate_tempiPfS_S_iiiiffffff$__cuda_local_var_16166_39_non_const_power_on_cuda" from 0x400 to 0x800 (shared memory space)
GPGPU-Sim PTX: allocating shared region for "_Z14calculate_tempiPfS_S_iiiiffffff$__cuda_local_var_16167_39_non_const_temp_t" from 0x800 to 0xc00 (shared memory space)
GPGPU-Sim PTX: instruction assembly for function '_Z14calculate_tempiPfS_S_iiiiffffff'...   done.
GPGPU-Sim PTX: finding reconvergence points for '_Z14calculate_tempiPfS_S_iiiiffffff'...
GPGPU-Sim PTX: Finding dominators for '_Z14calculate_tempiPfS_S_iiiiffffff'...
GPGPU-Sim PTX: Finding immediate dominators for '_Z14calculate_tempiPfS_S_iiiiffffff'...
GPGPU-Sim PTX: Finding postdominators for '_Z14calculate_tempiPfS_S_iiiiffffff'...
GPGPU-Sim PTX: Finding immediate postdominators for '_Z14calculate_tempiPfS_S_iiiiffffff'...
GPGPU-Sim PTX: pre-decoding instructions for '_Z14calculate_tempiPfS_S_iiiiffffff'...
GPGPU-Sim PTX: reconvergence points for _Z14calculate_tempiPfS_S_iiiiffffff...
GPGPU-Sim PTX:  1 (potential) branch divergence @  PC=0x118 (_1.ptx:82) @!%p7 bra BB0_2;
GPGPU-Sim PTX:    immediate post dominator      @  PC=0x1b8 (_1.ptx:106) bar.sync 0;
GPGPU-Sim PTX:  2 (potential) branch divergence @  PC=0x120 (_1.ptx:83) bra.uni BB0_1;
GPGPU-Sim PTX:    immediate post dominator      @  PC=0x128 (_1.ptx:86) mad.lo.s32 %r27, %r1, %r10, %r2;
GPGPU-Sim PTX:  3 (potential) branch divergence @  PC=0x1c8 (_1.ptx:108) @%p8 bra BB0_11;
GPGPU-Sim PTX:    immediate post dominator      @  PC=0x5b0 (_1.ptx:247) and.b16 %rs7, %rs8, 255;
GPGPU-Sim PTX:  4 (potential) branch divergence @  PC=0x338 (_1.ptx:157) @!%p15 bra BB0_7;
GPGPU-Sim PTX:    immediate post dominator      @  PC=0x538 (_1.ptx:226) bar.sync 0;
GPGPU-Sim PTX:  5 (potential) branch divergence @  PC=0x340 (_1.ptx:158) bra.uni BB0_5;
GPGPU-Sim PTX:    immediate post dominator      @  PC=0x348 (_1.ptx:161) setp.gt.s32%p16, %r23, %r6;
GPGPU-Sim PTX:  6 (potential) branch divergence @  PC=0x3d0 (_1.ptx:178) @%p28 bra BB0_7;
GPGPU-Sim PTX:    immediate post dominator      @  PC=0x538 (_1.ptx:226) bar.sync 0;
GPGPU-Sim PTX:  7 (potential) branch divergence @  PC=0x548 (_1.ptx:228) @%p31 bra BB0_11;
GPGPU-Sim PTX:    immediate post dominator      @  PC=0x5b0 (_1.ptx:247) and.b16 %rs7, %rs8, 255;
GPGPU-Sim PTX:  8 (potential) branch divergence @  PC=0x558 (_1.ptx:231) @%p32 bra BB0_10;
GPGPU-Sim PTX:    immediate post dominator      @  PC=0x590 (_1.ptx:241) bar.sync 0;
GPGPU-Sim PTX:  9 (potential) branch divergence @  PC=0x5a8 (_1.ptx:244) @%p33 bra BB0_4;
GPGPU-Sim PTX:    immediate post dominator      @  PC=0x5b0 (_1.ptx:247) and.b16 %rs7, %rs8, 255;
GPGPU-Sim PTX: 10 (potential) branch divergence @  PC=0x5c0 (_1.ptx:249) @%p34 bra BB0_13;
GPGPU-Sim PTX:    immediate post dominator      @  PC=0x620 (_1.ptx:264) ret;
GPGPU-Sim PTX: ... end of reconvergence points for _Z14calculate_tempiPfS_S_iiiiffffff
GPGPU-Sim PTX: ... done pre-decoding instructions for '_Z14calculate_tempiPfS_S_iiiiffffff'.
GPGPU-Sim PTX: finished parsing EMBEDDED .ptx file _1.ptx
Adding _cuobjdump_1.ptx with cubin handle 1
GPGPU-Sim PTX: extracting embedded .ptx to temporary file "_ptx_nKihKT"
Running: cat _ptx_nKihKT | sed 's/.version 1.5/.version 1.4/' | sed 's/, texmode_independent//' | sed 's/\(\.extern \.const\[1\] .b8 \w\+\)\[\]/\1\[1\]/' | sed 's/const\[.\]/const\[0\]/g' > _ptx2_k0Olwp
GPGPU-Sim PTX: generating ptxinfo using "$CUDA_INSTALL_PATH/bin/ptxas --gpu-name=sm_20 -v _ptx2_k0Olwp --output-file  /dev/null 2> _ptx_nKihKTinfo"
GPGPU-Sim PTX: Kernel '_Z14calculate_tempiPfS_S_iiiiffffff' : regs=34, lmem=0, smem=3072, cmem=120
GPGPU-Sim PTX: removing ptxinfo using "rm -f _ptx_nKihKT _ptx2_k0Olwp _ptx_nKihKTinfo"
GPGPU-Sim PTX: loading globals with explicit initializers... 
GPGPU-Sim PTX: finished loading globals (0 bytes total).
GPGPU-Sim PTX: loading constants with explicit initializers...  done.
WG size of kernel = 16 X 16
pyramidHeight: 2
gridSize: [1024, 1024]
border:[2, 2]
blockGrid:[86, 86]
targetBlock:[12, 12]
Start computing the transient temperature

GPGPU-Sim PTX: cudaLaunch for 0x0x401ae2 (mode=performance simulation) on stream 0
GPGPU-Sim PTX: pushing kernel '_Z14calculate_tempiPfS_S_iiiiffffff' to stream 0, gridDim= (86,86,1) blockDim = (16,16,1) 
GPGPU-Sim uArch: Shader 1 bind to kernel 1 '_Z14calculate_tempiPfS_S_iiiiffffff'
GPGPU-Sim uArch: CTA/core = 7, limited by: regs
GPGPU-Sim uArch: Shader 2 bind to kernel 1 '_Z14calculate_tempiPfS_S_iiiiffffff'
GPGPU-Sim uArch: Shader 3 bind to kernel 1 '_Z14calculate_tempiPfS_S_iiiiffffff'
GPGPU-Sim uArch: Shader 4 bind to kernel 1 '_Z14calculate_tempiPfS_S_iiiiffffff'
GPGPU-Sim uArch: Shader 5 bind to kernel 1 '_Z14calculate_tempiPfS_S_iiiiffffff'
GPGPU-Sim uArch: Shader 6 bind to kernel 1 '_Z14calculate_tempiPfS_S_iiiiffffff'
GPGPU-Sim uArch: Shader 7 bind to kernel 1 '_Z14calculate_tempiPfS_S_iiiiffffff'
GPGPU-Sim uArch: Shader 8 bind to kernel 1 '_Z14calculate_tempiPfS_S_iiiiffffff'
GPGPU-Sim uArch: Shader 9 bind to kernel 1 '_Z14calculate_tempiPfS_S_iiiiffffff'
GPGPU-Sim uArch: Shader 10 bind to kernel 1 '_Z14calculate_tempiPfS_S_iiiiffffff'
GPGPU-Sim uArch: Shader 11 bind to kernel 1 '_Z14calculate_tempiPfS_S_iiiiffffff'
GPGPU-Sim uArch: Shader 12 bind to kernel 1 '_Z14calculate_tempiPfS_S_iiiiffffff'
GPGPU-Sim uArch: Shader 13 bind to kernel 1 '_Z14calculate_tempiPfS_S_iiiiffffff'
GPGPU-Sim uArch: Shader 14 bind to kernel 1 '_Z14calculate_tempiPfS_S_iiiiffffff'
GPGPU-Sim uArch: Shader 15 bind to kernel 1 '_Z14calculate_tempiPfS_S_iiiiffffff'
GPGPU-Sim uArch: Shader 16 bind to kernel 1 '_Z14calculate_tempiPfS_S_iiiiffffff'
GPGPU-Sim uArch: Shader 17 bind to kernel 1 '_Z14calculate_tempiPfS_S_iiiiffffff'
GPGPU-Sim uArch: Shader 18 bind to kernel 1 '_Z14calculate_tempiPfS_S_iiiiffffff'
GPGPU-Sim uArch: Shader 19 bind to kernel 1 '_Z14calculate_tempiPfS_S_iiiiffffff'
GPGPU-Sim uArch: Shader 20 bind to kernel 1 '_Z14calculate_tempiPfS_S_iiiiffffff'
GPGPU-Sim uArch: Shader 21 bind to kernel 1 '_Z14calculate_tempiPfS_S_iiiiffffff'
GPGPU-Sim uArch: Shader 22 bind to kernel 1 '_Z14calculate_tempiPfS_S_iiiiffffff'
GPGPU-Sim uArch: Shader 23 bind to kernel 1 '_Z14calculate_tempiPfS_S_iiiiffffff'
GPGPU-Sim uArch: Shader 24 bind to kernel 1 '_Z14calculate_tempiPfS_S_iiiiffffff'
GPGPU-Sim uArch: Shader 25 bind to kernel 1 '_Z14calculate_tempiPfS_S_iiiiffffff'
GPGPU-Sim uArch: Shader 26 bind to kernel 1 '_Z14calculate_tempiPfS_S_iiiiffffff'
GPGPU-Sim uArch: Shader 27 bind to kernel 1 '_Z14calculate_tempiPfS_S_iiiiffffff'
GPGPU-Sim uArch: Shader 0 bind to kernel 1 '_Z14calculate_tempiPfS_S_iiiiffffff'
GPGPU-Sim uArch: Shader 1 bind to kernel 1 '_Z14calculate_tempiPfS_S_iiiiffffff'
GPGPU-Sim uArch: Shader 2 bind to kernel 1 '_Z14calculate_tempiPfS_S_iiiiffffff'
GPGPU-Sim uArch: Shader 3 bind to kernel 1 '_Z14calculate_tempiPfS_S_iiiiffffff'
GPGPU-Sim uArch: Shader 4 bind to kernel 1 '_Z14calculate_tempiPfS_S_iiiiffffff'
GPGPU-Sim uArch: Shader 7 bind to kernel 1 '_Z14calculate_tempiPfS_S_iiiiffffff'
GPGPU-Sim uArch: Shader 13 bind to kernel 1 '_Z14calculate_tempiPfS_S_iiiiffffff'
GPGPU-Sim uArch: Shader 15 bind to kernel 1 '_Z14calculate_tempiPfS_S_iiiiffffff'
GPGPU-Sim uArch: Shader 17 bind to kernel 1 '_Z14calculate_tempiPfS_S_iiiiffffff'
GPGPU-Sim uArch: Shader 18 bind to kernel 1 '_Z14calculate_tempiPfS_S_iiiiffffff'
GPGPU-Sim uArch: Shader 21 bind to kernel 1 '_Z14calculate_tempiPfS_S_iiiiffffff'
GPGPU-Sim uArch: Shader 24 bind to kernel 1 '_Z14calculate_tempiPfS_S_iiiiffffff'
GPGPU-Sim uArch: Shader 25 bind to kernel 1 '_Z14calculate_tempiPfS_S_iiiiffffff'
GPGPU-Sim uArch: Shader 27 bind to kernel 1 '_Z14calculate_tempiPfS_S_iiiiffffff'
GPGPU-Sim uArch: Shader 0 bind to kernel 1 '_Z14calculate_tempiPfS_S_iiiiffffff'
GPGPU-Sim uArch: Shader 14 bind to kernel 1 '_Z14calculate_tempiPfS_S_iiiiffffff'
GPGPU-Sim uArch: Shader 15 bind to kernel 1 '_Z14calculate_tempiPfS_S_iiiiffffff'
GPGPU-Sim uArch: Shader 18 bind to kernel 1 '_Z14calculate_tempiPfS_S_iiiiffffff'
GPGPU-Sim uArch: Shader 22 bind to kernel 1 '_Z14calculate_tempiPfS_S_iiiiffffff'
GPGPU-Sim uArch: Shader 23 bind to kernel 1 '_Z14calculate_tempiPfS_S_iiiiffffff'
GPGPU-Sim uArch: Shader 27 bind to kernel 1 '_Z14calculate_tempiPfS_S_iiiiffffff'
GPGPU-Sim uArch: Shader 4 bind to kernel 1 '_Z14calculate_tempiPfS_S_iiiiffffff'
GPGPU-Sim uArch: Shader 8 bind to kernel 1 '_Z14calculate_tempiPfS_S_iiiiffffff'
GPGPU-Sim uArch: Shader 11 bind to kernel 1 '_Z14calculate_tempiPfS_S_iiiiffffff'
GPGPU-Sim uArch: Shader 12 bind to kernel 1 '_Z14calculate_tempiPfS_S_iiiiffffff'
GPGPU-Sim uArch: Shader 13 bind to kernel 1 '_Z14calculate_tempiPfS_S_iiiiffffff'
GPGPU-Sim uArch: Shader 15 bind to kernel 1 '_Z14calculate_tempiPfS_S_iiiiffffff'
GPGPU-Sim uArch: Shader 20 bind to kernel 1 '_Z14calculate_tempiPfS_S_iiiiffffff'
GPGPU-Sim uArch: Shader 24 bind to kernel 1 '_Z14calculate_tempiPfS_S_iiiiffffff'
GPGPU-Sim uArch: Shader 4 bind to kernel 1 '_Z14calculate_tempiPfS_S_iiiiffffff'
GPGPU-Sim uArch: Shader 6 bind to kernel 1 '_Z14calculate_tempiPfS_S_iiiiffffff'
GPGPU-Sim uArch: Shader 12 bind to kernel 1 '_Z14calculate_tempiPfS_S_iiiiffffff'
GPGPU-Sim uArch: Shader 13 bind to kernel 1 '_Z14calculate_tempiPfS_S_iiiiffffff'
GPGPU-Sim uArch: Shader 22 bind to kernel 1 '_Z14calculate_tempiPfS_S_iiiiffffff'
GPGPU-Sim uArch: Shader 24 bind to kernel 1 '_Z14calculate_tempiPfS_S_iiiiffffff'
GPGPU-Sim uArch: Shader 9 bind to kernel 1 '_Z14calculate_tempiPfS_S_iiiiffffff'
GPGPU-Sim uArch: Shader 10 bind to kernel 1 '_Z14calculate_tempiPfS_S_iiiiffffff'
GPGPU-Sim uArch: Shader 11 bind to kernel 1 '_Z14calculate_tempiPfS_S_iiiiffffff'
GPGPU-Sim uArch: Shader 12 bind to kernel 1 '_Z14calculate_tempiPfS_S_iiiiffffff'
GPGPU-Sim uArch: Shader 13 bind to kernel 1 '_Z14calculate_tempiPfS_S_iiiiffffff'
GPGPU-Sim uArch: Shader 15 bind to kernel 1 '_Z14calculate_tempiPfS_S_iiiiffffff'
GPGPU-Sim uArch: Shader 16 bind to kernel 1 '_Z14calculate_tempiPfS_S_iiiiffffff'
GPGPU-Sim uArch: Shader 18 bind to kernel 1 '_Z14calculate_tempiPfS_S_iiiiffffff'
GPGPU-Sim uArch: Shader 19 bind to kernel 1 '_Z14calculate_tempiPfS_S_iiiiffffff'
GPGPU-Sim uArch: Shader 20 bind to kernel 1 '_Z14calculate_tempiPfS_S_iiiiffffff'
GPGPU-Sim uArch: Shader 22 bind to kernel 1 '_Z14calculate_tempiPfS_S_iiiiffffff'
GPGPU-Sim uArch: Shader 24 bind to kernel 1 '_Z14calculate_tempiPfS_S_iiiiffffff'
GPGPU-Sim uArch: Shader 26 bind to kernel 1 '_Z14calculate_tempiPfS_S_iiiiffffff'
GPGPU-Sim uArch: Shader 27 bind to kernel 1 '_Z14calculate_tempiPfS_S_iiiiffffff'
GPGPU-Sim uArch: Shader 0 bind to kernel 1 '_Z14calculate_tempiPfS_S_iiiiffffff'
GPGPU-Sim uArch: Shader 1 bind to kernel 1 '_Z14calculate_tempiPfS_S_iiiiffffff'
GPGPU-Sim uArch: Shader 4 bind to kernel 1 '_Z14calculate_tempiPfS_S_iiiiffffff'
GPGPU-Sim uArch: Shader 6 bind to kernel 1 '_Z14calculate_tempiPfS_S_iiiiffffff'
GPGPU-Sim uArch: Shader 7 bind to kernel 1 '_Z14calculate_tempiPfS_S_iiiiffffff'
GPGPU-Sim uArch: Shader 9 bind to kernel 1 '_Z14calculate_tempiPfS_S_iiiiffffff'
GPGPU-Sim uArch: Shader 14 bind to kernel 1 '_Z14calculate_tempiPfS_S_iiiiffffff'
GPGPU-Sim uArch: Shader 17 bind to kernel 1 '_Z14calculate_tempiPfS_S_iiiiffffff'
GPGPU-Sim uArch: Shader 21 bind to kernel 1 '_Z14calculate_tempiPfS_S_iiiiffffff'
GPGPU-Sim uArch: Shader 23 bind to kernel 1 '_Z14calculate_tempiPfS_S_iiiiffffff'
GPGPU-Sim uArch: Shader 25 bind to kernel 1 '_Z14calculate_tempiPfS_S_iiiiffffff'
GPGPU-Sim uArch: Shader 3 bind to kernel 1 '_Z14calculate_tempiPfS_S_iiiiffffff'
GPGPU-Sim uArch: Shader 5 bind to kernel 1 '_Z14calculate_tempiPfS_S_iiiiffffff'
GPGPU-Sim uArch: Shader 7 bind to kernel 1 '_Z14calculate_tempiPfS_S_iiiiffffff'
GPGPU-Sim uArch: Shader 22 bind to kernel 1 '_Z14calculate_tempiPfS_S_iiiiffffff'
GPGPU-Sim uArch: Shader 27 bind to kernel 1 '_Z14calculate_tempiPfS_S_iiiiffffff'
Destroy streams for kernel 1: size 0
kernel_name = _Z14calculate_tempiPfS_S_iiiiffffff 
kernel_launch_uid = 1 
gpu_sim_cycle = 1912084
gpu_sim_insn = 415466464
gpu_ipc =     217.2846
gpu_tot_sim_cycle = 2134234
gpu_tot_sim_insn = 415466464
gpu_tot_ipc =     194.6677
gpu_tot_issued_cta = 7396
max_total_param_size = 0
gpu_stall_dramfull = 53316
gpu_stall_icnt2sh    = 584877
partiton_reqs_in_parallel = 42012532
partiton_reqs_in_parallel_total    = 0
partiton_level_parallism =      21.9721
partiton_level_parallism_total  =      19.6851
partiton_reqs_in_parallel_util = 42012532
partiton_reqs_in_parallel_util_total    = 0
gpu_sim_cycle_parition_util = 1911460
gpu_tot_sim_cycle_parition_util    = 0
partiton_level_parallism_util =      21.9793
partiton_level_parallism_util_total  =      21.9793
partiton_replys_in_parallel = 456444
partiton_replys_in_parallel_total    = 0
L2_BW  =      22.6264 GB/Sec
L2_BW_total  =      20.2712 GB/Sec
gpu_total_sim_rate=148222

========= Core cache stats =========
L1I_cache:
	L1I_total_cache_accesses = 7740000
	L1I_total_cache_misses = 8688
	L1I_total_cache_miss_rate = 0.0011
	L1I_total_cache_pending_hits = 0
	L1I_total_cache_reservation_fails = 6846
L1D_cache:
	L1D_cache_core[0]: Access = 0, Miss = 0, Miss_rate = -nan, Pending_hits = 0, Reservation_fails = 0
	L1D_cache_core[1]: Access = 0, Miss = 0, Miss_rate = -nan, Pending_hits = 0, Reservation_fails = 0
	L1D_cache_core[2]: Access = 0, Miss = 0, Miss_rate = -nan, Pending_hits = 0, Reservation_fails = 0
	L1D_cache_core[3]: Access = 0, Miss = 0, Miss_rate = -nan, Pending_hits = 0, Reservation_fails = 0
	L1D_cache_core[4]: Access = 0, Miss = 0, Miss_rate = -nan, Pending_hits = 0, Reservation_fails = 0
	L1D_cache_core[5]: Access = 0, Miss = 0, Miss_rate = -nan, Pending_hits = 0, Reservation_fails = 0
	L1D_cache_core[6]: Access = 0, Miss = 0, Miss_rate = -nan, Pending_hits = 0, Reservation_fails = 0
	L1D_cache_core[7]: Access = 0, Miss = 0, Miss_rate = -nan, Pending_hits = 0, Reservation_fails = 0
	L1D_cache_core[8]: Access = 0, Miss = 0, Miss_rate = -nan, Pending_hits = 0, Reservation_fails = 0
	L1D_cache_core[9]: Access = 0, Miss = 0, Miss_rate = -nan, Pending_hits = 0, Reservation_fails = 0
	L1D_cache_core[10]: Access = 0, Miss = 0, Miss_rate = -nan, Pending_hits = 0, Reservation_fails = 0
	L1D_cache_core[11]: Access = 0, Miss = 0, Miss_rate = -nan, Pending_hits = 0, Reservation_fails = 0
	L1D_cache_core[12]: Access = 0, Miss = 0, Miss_rate = -nan, Pending_hits = 0, Reservation_fails = 0
	L1D_cache_core[13]: Access = 0, Miss = 0, Miss_rate = -nan, Pending_hits = 0, Reservation_fails = 0
	L1D_cache_core[14]: Access = 0, Miss = 0, Miss_rate = -nan, Pending_hits = 0, Reservation_fails = 0
	L1D_cache_core[15]: Access = 0, Miss = 0, Miss_rate = -nan, Pending_hits = 0, Reservation_fails = 0
	L1D_cache_core[16]: Access = 0, Miss = 0, Miss_rate = -nan, Pending_hits = 0, Reservation_fails = 0
	L1D_cache_core[17]: Access = 0, Miss = 0, Miss_rate = -nan, Pending_hits = 0, Reservation_fails = 0
	L1D_cache_core[18]: Access = 0, Miss = 0, Miss_rate = -nan, Pending_hits = 0, Reservation_fails = 0
	L1D_cache_core[19]: Access = 0, Miss = 0, Miss_rate = -nan, Pending_hits = 0, Reservation_fails = 0
	L1D_cache_core[20]: Access = 0, Miss = 0, Miss_rate = -nan, Pending_hits = 0, Reservation_fails = 0
	L1D_cache_core[21]: Access = 0, Miss = 0, Miss_rate = -nan, Pending_hits = 0, Reservation_fails = 0
	L1D_cache_core[22]: Access = 0, Miss = 0, Miss_rate = -nan, Pending_hits = 0, Reservation_fails = 0
	L1D_cache_core[23]: Access = 0, Miss = 0, Miss_rate = -nan, Pending_hits = 0, Reservation_fails = 0
	L1D_cache_core[24]: Access = 0, Miss = 0, Miss_rate = -nan, Pending_hits = 0, Reservation_fails = 0
	L1D_cache_core[25]: Access = 0, Miss = 0, Miss_rate = -nan, Pending_hits = 0, Reservation_fails = 0
	L1D_cache_core[26]: Access = 0, Miss = 0, Miss_rate = -nan, Pending_hits = 0, Reservation_fails = 0
	L1D_cache_core[27]: Access = 0, Miss = 0, Miss_rate = -nan, Pending_hits = 0, Reservation_fails = 0
	L1D_total_cache_accesses = 0
	L1D_total_cache_misses = 0
	L1D_total_cache_pending_hits = 0
	L1D_total_cache_reservation_fails = 0
	L1D_cache_data_port_util = 0.000
	L1D_cache_fill_port_util = 0.000
L1C_cache:
	L1C_total_cache_accesses = 769184
	L1C_total_cache_misses = 2195
	L1C_total_cache_miss_rate = 0.0029
	L1C_total_cache_pending_hits = 0
	L1C_total_cache_reservation_fails = 4886
L1T_cache:
	L1T_total_cache_accesses = 0
	L1T_total_cache_misses = 0
	L1T_total_cache_pending_hits = 0
	L1T_total_cache_reservation_fails = 0

Total_core_cache_stats:
	Total_core_cache_stats_breakdown[GLOBAL_ACC_R][HIT] = 0
	Total_core_cache_stats_breakdown[GLOBAL_ACC_R][HIT_RESERVED] = 0
	Total_core_cache_stats_breakdown[GLOBAL_ACC_R][MISS] = 0
	Total_core_cache_stats_breakdown[GLOBAL_ACC_R][RESERVATION_FAIL] = 0
	Total_core_cache_stats_breakdown[LOCAL_ACC_R][HIT] = 0
	Total_core_cache_stats_breakdown[LOCAL_ACC_R][HIT_RESERVED] = 0
	Total_core_cache_stats_breakdown[LOCAL_ACC_R][MISS] = 0
	Total_core_cache_stats_breakdown[LOCAL_ACC_R][RESERVATION_FAIL] = 0
	Total_core_cache_stats_breakdown[CONST_ACC_R][HIT] = 766989
	Total_core_cache_stats_breakdown[CONST_ACC_R][HIT_RESERVED] = 0
	Total_core_cache_stats_breakdown[CONST_ACC_R][MISS] = 2195
	Total_core_cache_stats_breakdown[CONST_ACC_R][RESERVATION_FAIL] = 4886
	Total_core_cache_stats_breakdown[TEXTURE_ACC_R][HIT] = 0
	Total_core_cache_stats_breakdown[TEXTURE_ACC_R][HIT_RESERVED] = 0
	Total_core_cache_stats_breakdown[TEXTURE_ACC_R][MISS] = 0
	Total_core_cache_stats_breakdown[TEXTURE_ACC_R][RESERVATION_FAIL] = 0
	Total_core_cache_stats_breakdown[GLOBAL_ACC_W][HIT] = 0
	Total_core_cache_stats_breakdown[GLOBAL_ACC_W][HIT_RESERVED] = 0
	Total_core_cache_stats_breakdown[GLOBAL_ACC_W][MISS] = 0
	Total_core_cache_stats_breakdown[GLOBAL_ACC_W][RESERVATION_FAIL] = 0
	Total_core_cache_stats_breakdown[LOCAL_ACC_W][HIT] = 0
	Total_core_cache_stats_breakdown[LOCAL_ACC_W][HIT_RESERVED] = 0
	Total_core_cache_stats_breakdown[LOCAL_ACC_W][MISS] = 0
	Total_core_cache_stats_breakdown[LOCAL_ACC_W][RESERVATION_FAIL] = 0
	Total_core_cache_stats_breakdown[L1_WRBK_ACC][HIT] = 0
	Total_core_cache_stats_breakdown[L1_WRBK_ACC][HIT_RESERVED] = 0
	Total_core_cache_stats_breakdown[L1_WRBK_ACC][MISS] = 0
	Total_core_cache_stats_breakdown[L1_WRBK_ACC][RESERVATION_FAIL] = 0
	Total_core_cache_stats_breakdown[L2_WRBK_ACC][HIT] = 0
	Total_core_cache_stats_breakdown[L2_WRBK_ACC][HIT_RESERVED] = 0
	Total_core_cache_stats_breakdown[L2_WRBK_ACC][MISS] = 0
	Total_core_cache_stats_breakdown[L2_WRBK_ACC][RESERVATION_FAIL] = 0
	Total_core_cache_stats_breakdown[INST_ACC_R][HIT] = 7731312
	Total_core_cache_stats_breakdown[INST_ACC_R][HIT_RESERVED] = 0
	Total_core_cache_stats_breakdown[INST_ACC_R][MISS] = 8688
	Total_core_cache_stats_breakdown[INST_ACC_R][RESERVATION_FAIL] = 6846
	Total_core_cache_stats_breakdown[L1_WR_ALLOC_R][HIT] = 0
	Total_core_cache_stats_breakdown[L1_WR_ALLOC_R][HIT_RESERVED] = 0
	Total_core_cache_stats_breakdown[L1_WR_ALLOC_R][MISS] = 0
	Total_core_cache_stats_breakdown[L1_WR_ALLOC_R][RESERVATION_FAIL] = 0
	Total_core_cache_stats_breakdown[L2_WR_ALLOC_R][HIT] = 0
	Total_core_cache_stats_breakdown[L2_WR_ALLOC_R][HIT_RESERVED] = 0
	Total_core_cache_stats_breakdown[L2_WR_ALLOC_R][MISS] = 0
	Total_core_cache_stats_breakdown[L2_WR_ALLOC_R][RESERVATION_FAIL] = 0
	Total_core_cache_stats_breakdown[CONST_ACC_R][TOTAL_ACCESS] = 769184
	Total_core_cache_stats_breakdown[INST_ACC_R][TOTAL_ACCESS] = 7740000
Shader 0 warp_id issue ditsribution:
warp_id:
0, 1, 2, 3, 4, 5, 6, 7, 8, 9, 10, 11, 12, 13, 14, 15, 16, 17, 18, 19, 20, 21, 22, 23, 24, 25, 26, 27, 28, 29, 30, 31, 32, 33, 34, 35, 36, 37, 38, 39, 40, 41, 42, 43, 44, 45, 46, 47, 48, 49, 50, 51, 52, 53, 54, 55, 
distro:
9983, 12593, 12609, 12567, 12611, 12570, 12606, 10082, 9726, 12267, 12292, 12116, 12149, 12105, 12141, 9749, 9486, 11964, 11996, 11952, 11989, 11947, 11984, 9584, 9305, 11641, 11662, 11488, 11515, 11487, 11516, 9254, 9551, 11942, 11971, 11781, 11828, 11776, 11830, 9481, 9308, 11632, 11665, 11482, 11518, 11483, 11516, 9253, 9302, 11641, 11660, 11485, 11511, 11472, 11511, 9256, 
gpgpu_n_tot_thrd_icount = 485326208
gpgpu_n_tot_w_icount = 15166444
gpgpu_n_stall_shd_mem = 394117
gpgpu_n_mem_read_local = 0
gpgpu_n_mem_write_local = 0
gpgpu_n_mem_read_global = 346456
gpgpu_n_mem_write_global = 109568
gpgpu_n_mem_texture = 0
gpgpu_n_mem_const = 56
gpgpu_n_load_insn  = 3720992
gpgpu_n_store_insn = 1048576
gpgpu_n_shmem_insn = 24940324
gpgpu_n_tex_insn = 0
gpgpu_n_const_mem_insn = 0
gpgpu_n_param_mem_insn = 24613888
gpgpu_n_shmem_bkconflict = 0
gpgpu_n_cache_bkconflict = 0
gpgpu_n_intrawarp_mshr_merge = 0
gpgpu_n_cmem_portconflict = 4886
gpgpu_stall_shd_mem[c_mem][bk_conf] = 4886
gpgpu_stall_shd_mem[c_mem][mshr_rc] = 0
gpgpu_stall_shd_mem[c_mem][icnt_rc] = 0
gpgpu_stall_shd_mem[c_mem][data_port_stall] = 0
gpgpu_stall_shd_mem[t_mem][mshr_rc] = 0
gpgpu_stall_shd_mem[t_mem][icnt_rc] = 0
gpgpu_stall_shd_mem[t_mem][data_port_stall] = 0
gpgpu_stall_shd_mem[s_mem][bk_conf] = 0
gpgpu_stall_shd_mem[gl_mem][bk_conf] = 0
gpgpu_stall_shd_mem[gl_mem][coal_stall] = 322018
gpgpu_stall_shd_mem[gl_mem][data_port_stall] = 0
gpgpu_stall_shd_mem[g_mem_ld][mshr_rc] = 0
gpgpu_stall_shd_mem[g_mem_ld][icnt_rc] = 67213
gpgpu_stall_shd_mem[g_mem_ld][wb_icnt_rc] = 0
gpgpu_stall_shd_mem[g_mem_ld][wb_rsrv_fail] = 0
gpgpu_stall_shd_mem[g_mem_st][mshr_rc] = 0
gpgpu_stall_shd_mem[g_mem_st][icnt_rc] = 0
gpgpu_stall_shd_mem[g_mem_st][wb_icnt_rc] = 0
gpgpu_stall_shd_mem[g_mem_st][wb_rsrv_fail] = 0
gpgpu_stall_shd_mem[l_mem_ld][mshr_rc] = 0
gpgpu_stall_shd_mem[l_mem_ld][icnt_rc] = 0
gpgpu_stall_shd_mem[l_mem_ld][wb_icnt_rc] = 0
gpgpu_stall_shd_mem[l_mem_ld][wb_rsrv_fail] = 0
gpgpu_stall_shd_mem[l_mem_st][mshr_rc] = 0
gpgpu_stall_shd_mem[l_mem_st][icnt_rc] = 0
gpgpu_stall_shd_mem[l_mem_ld][wb_icnt_rc] = 0
gpgpu_stall_shd_mem[l_mem_ld][wb_rsrv_fail] = 0
gpu_reg_bank_conflict_stalls = 0
Warp Occupancy Distribution:
Stall:534406	W0_Idle:48336013	W0_Scoreboard:45444521	W1:0	W2:0	W3:0	W4:0	W5:8500	W6:0	W7:0	W8:28160	W9:0	W10:25600	W11:0	W12:12958	W13:8500	W14:714000	W15:0	W16:0	W17:0	W18:0	W19:0	W20:0	W21:0	W22:0	W23:0	W24:3517792	W25:0	W26:25600	W27:0	W28:3287550	W29:0	W30:0	W31:0	W32:7537784
traffic_breakdown_coretomem[CONST_ACC_R] = 448 {8:56,}
traffic_breakdown_coretomem[GLOBAL_ACC_R] = 2771648 {8:346456,}
traffic_breakdown_coretomem[GLOBAL_ACC_W] = 7856128 {40:44032,72:44032,136:21504,}
traffic_breakdown_coretomem[INST_ACC_R] = 2912 {8:364,}
traffic_breakdown_memtocore[CONST_ACC_R] = 4032 {72:56,}
traffic_breakdown_memtocore[GLOBAL_ACC_R] = 28785856 {40:114576,72:114576,136:117304,}
traffic_breakdown_memtocore[GLOBAL_ACC_W] = 876544 {8:109568,}
traffic_breakdown_memtocore[INST_ACC_R] = 49504 {136:364,}
maxmrqlatency = 540 
maxdqlatency = 0 
maxmflatency = 243881 
averagemflatency = 5494 
max_icnt2mem_latency = 243557 
max_icnt2sh_latency = 2134233 
mrq_lat_table:110967 	5935 	6011 	11916 	12707 	11854 	9933 	9801 	9195 	11 	0 	0 	0 	0 	0 	0 	0 	0 	0 	0 	0 	0 	0 	0 	0 	0 	0 	0 	0 	0 	0 	0 	
dq_lat_table:0 	0 	0 	0 	0 	0 	0 	0 	0 	0 	0 	0 	0 	0 	0 	0 	0 	0 	0 	0 	0 	0 	0 	0 	0 	0 	0 	0 	0 	0 	0 	0 	
mf_lat_table:0 	0 	0 	0 	0 	0 	0 	281169 	131132 	1847 	234 	2284 	1525 	3645 	7765 	18466 	5817 	2196 	0 	0 	0 	0 	0 	0 	0 	0 	0 	0 	0 	0 	0 	0 	
icnt2mem_lat_table:0 	0 	231469 	48020 	4880 	1448 	120917 	7518 	260 	1 	423 	2094 	1529 	3754 	8053 	18065 	5817 	2196 	0 	0 	0 	0 	0 	0 	
icnt2sh_lat_table:0 	0 	106468 	147897 	84484 	7572 	91 	0 	0 	0 	0 	0 	0 	0 	0 	0 	0 	0 	12840 	14659 	66243 	15826 	0 	0 	
mf_lat_pw_table:0 	0 	0 	0 	0 	0 	0 	391 	64 	3 	3 	13 	6 	12 	20 	30 	7 	2 	0 	0 	0 	0 	0 	0 	0 	0 	0 	0 	0 	0 	0 	0 	
maximum concurrent accesses to same row:
dram[0]:        69        70        69        70        66        67        69        70        69        70        69        70        68        66        69        70 
dram[1]:        69        70        69        70        66        63        69        70        69        70        69        70        68        65        69        70 
dram[2]:        69        70        69        70        65        65        69        70        69        70        69        70        66        66        69        70 
dram[3]:        69        70        69        70        67        63        69        70        69        70        69        70        64        66        69        70 
dram[4]:        69        70        69        70        65        66        69        70        69        70        69        70        66        65        69        70 
dram[5]:        69        70        69        70        63        66        69        70        69        70        69        70        67        69        69        70 
dram[6]:        69        70        69        70        68        64        69        70        69        70        69        70        69        66        69        70 
dram[7]:        69        70        69        70        64        65        69        70        69        70        69        70        66        66        69        70 
dram[8]:        69        70        69        70        66        64        69        70        69        70        69        70        65        66        69        70 
dram[9]:        69        70        69        70        67        63        69        70        69        70        69        70        64        66        69        70 
dram[10]:        69        70        69        70        64        67        69        70        69        70        69        70        67        66        69        70 
maximum service time to same row:
dram[0]:    259027    259104    491499    491740    256635    256501    494772    494842    377430    377334    376792    248610    254732    254730    253451    253530 
dram[1]:    259165    259484    491698    491701    489994    489787    498556    498709    377548    377494    248539    248913    254718    254714    253460    253304 
dram[2]:    259128    259478    491522    491482    489111    489118    498445    498636    377556    377419    248618    248343    254726    254725    252889    252533 
dram[3]:    259171    259143    491486    491399    368062    256693    498502    498673    377310    377428    248263    248208    254601    254637    253443    253455 
dram[4]:    259383    259619    491352    491689    256542    256699    494844    494636    377542    377553    248148    248217    254669    254654    253457    253541 
dram[5]:    259027    259103    491594    491599    256636    256483    494740    495003    377452    377398    248157    251804    254732    254731    253463    253521 
dram[6]:    259198    259520    491522    491516    489943    489691    498482    498607    377430    377400    376319    245760    254721    254718    253457    253305 
dram[7]:    257646    259492    491461    491372    489782    489783    498375    498723    377446    377268    245675    245665    254725    254727    252939    252512 
dram[8]:    259159    259186    491353    491266    256532    256576    498544    498648    377329    377370    245566    245576    254600    254624    253433    253499 
dram[9]:    259365    259470    491352    491697    256425    256563    494856    494578    377284    377301    245579    245743    254549    254648    253456    253536 
dram[10]:    264397    263758    491603    491573    256823    256448    494724    495003    377262    377270    245712    249367    254675    254664    253472    253529 
average row accesses per activate:
dram[0]: 12.901235 12.703704 10.505051  9.933333  9.596331 10.724490 10.557693 10.567307  9.935780  9.316239 10.543690  9.478261 11.347368 11.500000 12.290698 11.041237 
dram[1]: 13.933333 13.415585 10.701031 11.919540 11.247312 11.456522 10.950000 10.101851 10.074766  9.981818 10.960000 10.784314 11.559140 12.505747 12.783133 11.977777 
dram[2]: 13.880000 13.720000 11.908046 11.444445 11.268817 11.800000 11.112245 12.454545  9.438597 10.409524 12.166667 11.060000 13.048193 13.216867 13.531646 12.951807 
dram[3]: 15.373135 16.349207 11.315217 12.621951 11.988505 11.677778 12.651163 12.988095 10.046296 11.515789 12.177778 12.348314 13.456790 13.700000 12.600000 12.903614 
dram[4]: 13.973333 13.500000 10.460000 10.390000 11.719101 12.902439 11.835165 12.397727 10.451923 10.696078 11.526316 11.795699 13.734178 12.802325 13.730769 11.446809 
dram[5]: 12.197675 12.190476  9.675926  9.735849  9.360360  9.990566 10.850000 10.735294  9.696428  8.853659 10.083333 10.471154 12.134831 11.040000 10.250000 10.720000 
dram[6]: 13.384615 11.670455 11.651686 11.685393 11.301075  9.722222 10.782178 11.040404  9.827272 10.177570 11.923913 10.960000 11.569893 12.211111 11.811111 11.717391 
dram[7]: 14.301370 14.013514 12.802469 12.962500 10.656566 11.072917 12.044444 12.755814  9.745455 10.689321 12.894117 11.956522 11.857142 12.325843 11.988764 12.367816 
dram[8]: 14.232877 13.113924 11.488889 12.597561 11.797752 11.811111 11.847826 12.940476 10.027778 10.390476 12.755814 13.083333 12.033334 13.011905 12.635294 12.797619 
dram[9]: 14.676056 14.464788 10.156863 10.038462 10.704082 11.255320 12.224719 12.976191  9.954545 11.406250 12.000000 11.774194 11.706522 12.188889 12.750000 11.739130 
dram[10]: 13.448718 13.115385 10.019231  9.638889  9.990477 11.104167 12.340909 11.542553 10.158878  9.828829 11.226804 10.841584 12.261364 11.913043 10.877551 10.888889 
average row locality = 188330/16324 = 11.537001
number of total memory accesses made:
dram[0]:         0         0         0         0         0         0         0         0         0         0         0         0         0         0         0         0 
dram[1]:         0         0         0         0         0         0         0         0         0         0         0         0         0         0         0         0 
dram[2]:         0         0         0         0         0         0         0         0         0         0         0         0         0         0         0         0 
dram[3]:         0         0         0         0         0         0         0         0         0         0         0         0         0         0         0         0 
dram[4]:         0         0         0         0         0         0         0         0         0         0         0         0         0         0         0         0 
dram[5]:         0         0         0         0         0         0         0         0         0         0         0         0         0         0         0         0 
dram[6]:         0         0         0         0         0         0         0         0         0         0         0         0         0         0         0         0 
dram[7]:         0         0         0         0         0         0         0         0         0         0         0         0         0         0         0         0 
dram[8]:         0         0         0         0         0         0         0         0         0         0         0         0         0         0         0         0 
dram[9]:         0         0         0         0         0         0         0         0         0         0         0         0         0         0         0         0 
dram[10]:         0         0         0         0         0         0         0         0         0         0         0         0         0         0         0         0 
total accesses: 0
min_bank_accesses = 0!
min_chip_accesses = 0!
number of total read accesses:
dram[0]:       561       560       560       560       560       560       560       560       560       560       548       548       560       560       560       560 
dram[1]:       560       560       560       560       560       560       560       560       560       560       549       549       560       560       560       560 
dram[2]:       560       560       560       560       560       560       560       560       560       560       549       549       560       560       560       560 
dram[3]:       560       560       560       560       560       560       560       560       560       560       549       549       560       560       560       560 
dram[4]:       560       560       560       560       560       560       560       560       560       560       549       549       560       560       561       561 
dram[5]:       560       560       560       560       560       560       560       560       560       560       548       548       560       560       561       561 
dram[6]:       560       560       560       560       560       560       560       560       560       560       548       548       560       560       561       561 
dram[7]:       560       560       560       560       560       560       560       560       560       560       548       548       560       560       561       561 
dram[8]:       560       560       560       560       560       560       560       560       560       560       548       548       560       560       561       561 
dram[9]:       560       560       560       560       560       560       560       560       560       560       548       548       560       560       561       561 
dram[10]:       560       560       560       560       560       560       560       560       560       560       548       548       560       560       561       560 
total reads: 98318
bank skew: 561/548 = 1.02
chip skew: 8940/8937 = 1.00
number of total write accesses:
dram[0]:       484       469       480       483       486       491       538       539       523       530       538       542       518       544       497       511 
dram[1]:       485       473       478       477       486       494       535       531       518       538       547       551       515       528       501       518 
dram[2]:       481       469       476       470       488       502       529       536       516       533       546       557       523       537       509       515 
dram[3]:       470       470       481       475       483       491       528       531       525       534       547       550       530       536       511       511 
dram[4]:       488       466       486       479       483       498       517       531       527       531       546       548       525       541       510       515 
dram[5]:       489       464       485       472       479       499       525       535       526       529       541       541       520       544       505       511 
dram[6]:       484       467       477       480       491       490       529       533       521       529       549       548       516       539       502       517 
dram[7]:       484       477       477       477       495       503       524       537       512       541       548       552       519       537       506       515 
dram[8]:       479       476       474       473       490       503       530       527       523       531       549       551       523       533       513       514 
dram[9]:       482       467       476       484       489       498       528       530       535       535       544       547       517       537       510       519 
dram[10]:       489       463       482       481       489       506       526       525       527       531       541       547       519       536       505       518 
total reads: 90012
bank skew: 557/463 = 1.20
chip skew: 8204/8165 = 1.00
average mf latency per bank:
dram[0]:      12037     12026     20112     20491     19775     19492     12098     12379      6524      6342      9065      9021     14207     14047     12227     11845
dram[1]:      12877     13262     20340     20620     19969     19504     12409     12601      6609      6390      9136      9083     14371     14430     12284     11887
dram[2]:      12669     13055     20099     20066     19657     19534     12596     12605      6422      5989      9198      9050     14617     14549     12189     11926
dram[3]:      13317     12787     19649     19982     19781     19442     12384     12290      6451      6181      9150      9116     14393     14552     12255     11845
dram[4]:      12939     13180     18884     19231     20479     20074     12215     12002      6446      6234      8849      8489     14526     14295     11905     11595
dram[5]:      13130     13791     18854     19161     20676     20163     11796     11897      6663      6534      8304      8316     14479     14256     11269     10978
dram[6]:      13497     13300     19827     20149     19963     19610     12053     12253      6805      6581      9517      9843     14469     14541     11684     11375
dram[7]:      12884     13463     19693     19530     20230     20467     12871     13042      6606      6094      9897      9873     14949     14866     11741     11480
dram[8]:      13193     12966     19612     19921     20220     19937     12844     12724      6199      5894      9887      9821     14939     14986     11746     11484
dram[9]:      13270     12902     19106     19275     20086     19364     12049     11864      6288      6066      9980      9952     14953     14764     12258     11997
dram[10]:      12162     12770     19040     19097     20047     19854     11894     12067      6340      6181     10065      9938     14658     14184     12027     11564
maximum mf latency per bank:
dram[0]:     232469    232385    233112    233059    232958    232814    123758    123719    123046    122891    130124    130129    129822    129838    243814    243834
dram[1]:     232446    232426    233145    233076    233016    232988    123748    123755    122986    123019    130123    130135    129950    130093    243800    243829
dram[2]:     232445    232391    233312    233123    232939    232936    123755    123764    123015    122995    130125    130132    129994    130152    243808    243831
dram[3]:     232446    232444    233091    233112    232958    232970    123760    123737    123069    123072    130133    130135    129945    130069    243807    243881
dram[4]:     232433    232424    233007    233022    232938    232950    123744    123755    123051    123004    130130    130134    129849    129903    243809    129597
dram[5]:     232594    232390    233029    233021    232950    232848    123562    123729    123015    122923    130127    130124    129833    129854    129626    129729
dram[6]:     232573    232455    233148    233039    232819    232810    123731    123756    123043    123003    130136    130152    129943    130021    129802    129816
dram[7]:     232387    232498    233251    233120    232944    232977    123783    124042    122982    123015    130130    130133    129945    130040    129722    129672
dram[8]:     232505    232507    233082    233183    232986    232992    123813    123828    123011    123071    130125    130163    129991    130071    129763    129718
dram[9]:     232524    232530    233101    233039    232948    233000    123724    123734    123050    122978    130136    130138    129810    129926    243764    243774
dram[10]:     232496    232454    233088    233033    232949    232919    123741    123799    123024    122964    130139    130142    129853    129877    243797    243810
Memory Partition 0: 
Cache L2_bank_000:
MSHR contents

Cache L2_bank_001:
MSHR contents

In Dram Latency Queue (total = 0): 
DRAM[0]: 16 bks, busW=4 BL=8 CL=12, tRRD=2 tCCD=6, tRCD=12 tRAS=28 tRP=12 tRC=40
n_cmd=3550458 n_nop=3492322 n_act=1600 n_pre=1584 n_req=17110 n_rd=35748 n_write=19204 bw_util=0.03095
n_activity=193506 dram_eff=0.568
bk0: 2244a 3530425i bk1: 2240a 3529147i bk2: 2240a 3529156i bk3: 2240a 3528341i bk4: 2240a 3529500i bk5: 2240a 3527643i bk6: 2240a 3527999i bk7: 2240a 3527805i bk8: 2240a 3528711i bk9: 2240a 3526575i bk10: 2192a 3528554i bk11: 2192a 3527221i bk12: 2240a 3529068i bk13: 2240a 3527442i bk14: 2240a 3529921i bk15: 2240a 3527963i 
dram_util_bins: 0 0 0 0 0 0 0 0 0 0
dram_eff_bins: 0 0 0 0 0 0 0 0 0 0
mrqq: max=64 avg=0.327188
Memory Partition 1: 
Cache L2_bank_002:
MSHR contents

Cache L2_bank_003:
MSHR contents

In Dram Latency Queue (total = 0): 
DRAM[1]: 16 bks, busW=4 BL=8 CL=12, tRRD=2 tCCD=6, tRCD=12 tRAS=28 tRP=12 tRC=40
n_cmd=3550458 n_nop=3492569 n_act=1501 n_pre=1485 n_req=17113 n_rd=35752 n_write=19151 bw_util=0.03093
n_activity=192587 dram_eff=0.5702
bk0: 2240a 3530676i bk1: 2240a 3529386i bk2: 2240a 3529926i bk3: 2240a 3528995i bk4: 2240a 3529355i bk5: 2240a 3528643i bk6: 2240a 3529090i bk7: 2240a 3528280i bk8: 2240a 3528233i bk9: 2240a 3526764i bk10: 2196a 3528891i bk11: 2196a 3527668i bk12: 2240a 3529158i bk13: 2240a 3527685i bk14: 2240a 3529539i bk15: 2240a 3527909i 
dram_util_bins: 0 0 0 0 0 0 0 0 0 0
dram_eff_bins: 0 0 0 0 0 0 0 0 0 0
mrqq: max=64 avg=0.324161
Memory Partition 2: 
Cache L2_bank_004:
MSHR contents

Cache L2_bank_005:
MSHR contents

In Dram Latency Queue (total = 0): 
DRAM[2]: 16 bks, busW=4 BL=8 CL=12, tRRD=2 tCCD=6, tRCD=12 tRAS=28 tRP=12 tRC=40
n_cmd=3550458 n_nop=3492623 n_act=1433 n_pre=1417 n_req=17125 n_rd=35752 n_write=19233 bw_util=0.03097
n_activity=192594 dram_eff=0.571
bk0: 2240a 3530896i bk1: 2240a 3529459i bk2: 2240a 3529971i bk3: 2240a 3529289i bk4: 2240a 3529073i bk5: 2240a 3528524i bk6: 2240a 3529182i bk7: 2240a 3528711i bk8: 2240a 3528866i bk9: 2240a 3528247i bk10: 2196a 3529045i bk11: 2196a 3527765i bk12: 2240a 3529100i bk13: 2240a 3527391i bk14: 2240a 3529619i bk15: 2240a 3529071i 
dram_util_bins: 0 0 0 0 0 0 0 0 0 0
dram_eff_bins: 0 0 0 0 0 0 0 0 0 0
mrqq: max=64 avg=0.318864
Memory Partition 3: 
Cache L2_bank_006:
MSHR contents

Cache L2_bank_007:
MSHR contents

In Dram Latency Queue (total = 0): 
DRAM[3]: 16 bks, busW=4 BL=8 CL=12, tRRD=2 tCCD=6, tRCD=12 tRAS=28 tRP=12 tRC=40
n_cmd=3550458 n_nop=3492779 n_act=1362 n_pre=1346 n_req=17111 n_rd=35752 n_write=19219 bw_util=0.03097
n_activity=193308 dram_eff=0.5687
bk0: 2240a 3531286i bk1: 2240a 3530145i bk2: 2240a 3530029i bk3: 2240a 3529606i bk4: 2240a 3529819i bk5: 2240a 3529592i bk6: 2240a 3528690i bk7: 2240a 3528781i bk8: 2240a 3528697i bk9: 2240a 3527730i bk10: 2196a 3529167i bk11: 2196a 3528232i bk12: 2240a 3528831i bk13: 2240a 3528119i bk14: 2240a 3530466i bk15: 2240a 3528766i 
dram_util_bins: 0 0 0 0 0 0 0 0 0 0
dram_eff_bins: 0 0 0 0 0 0 0 0 0 0
mrqq: max=64 avg=0.318439
Memory Partition 4: 
Cache L2_bank_008:
MSHR contents

Cache L2_bank_009:
MSHR contents

In Dram Latency Queue (total = 0): 
DRAM[4]: 16 bks, busW=4 BL=8 CL=12, tRRD=2 tCCD=6, tRCD=12 tRAS=28 tRP=12 tRC=40
n_cmd=3550458 n_nop=3492626 n_act=1432 n_pre=1416 n_req=17131 n_rd=35760 n_write=19224 bw_util=0.03097
n_activity=192714 dram_eff=0.5706
bk0: 2240a 3529846i bk1: 2240a 3528879i bk2: 2240a 3529754i bk3: 2240a 3529244i bk4: 2240a 3529874i bk5: 2240a 3528167i bk6: 2240a 3529638i bk7: 2240a 3527910i bk8: 2240a 3528802i bk9: 2240a 3527786i bk10: 2196a 3528367i bk11: 2196a 3527028i bk12: 2240a 3529635i bk13: 2240a 3527813i bk14: 2244a 3530110i bk15: 2244a 3528501i 
dram_util_bins: 0 0 0 0 0 0 0 0 0 0
dram_eff_bins: 0 0 0 0 0 0 0 0 0 0
mrqq: max=64 avg=0.323358
Memory Partition 5: 
Cache L2_bank_010:
MSHR contents

Cache L2_bank_011:
MSHR contents

In Dram Latency Queue (total = 0): 
DRAM[5]: 16 bks, busW=4 BL=8 CL=12, tRRD=2 tCCD=6, tRCD=12 tRAS=28 tRP=12 tRC=40
n_cmd=3550458 n_nop=3492236 n_act=1643 n_pre=1627 n_req=17103 n_rd=35752 n_write=19200 bw_util=0.03095
n_activity=194173 dram_eff=0.566
bk0: 2240a 3529506i bk1: 2240a 3529361i bk2: 2240a 3529634i bk3: 2240a 3529004i bk4: 2240a 3528911i bk5: 2240a 3527571i bk6: 2240a 3529419i bk7: 2240a 3528270i bk8: 2240a 3528130i bk9: 2240a 3526480i bk10: 2192a 3528850i bk11: 2192a 3528211i bk12: 2240a 3529125i bk13: 2240a 3526621i bk14: 2244a 3529484i bk15: 2244a 3528419i 
dram_util_bins: 0 0 0 0 0 0 0 0 0 0
dram_eff_bins: 0 0 0 0 0 0 0 0 0 0
mrqq: max=64 avg=0.320205
Memory Partition 6: 
Cache L2_bank_012:
MSHR contents

Cache L2_bank_013:
MSHR contents

In Dram Latency Queue (total = 0): 
DRAM[6]: 16 bks, busW=4 BL=8 CL=12, tRRD=2 tCCD=6, tRCD=12 tRAS=28 tRP=12 tRC=40
n_cmd=3550458 n_nop=3492535 n_act=1519 n_pre=1503 n_req=17110 n_rd=35752 n_write=19149 bw_util=0.03093
n_activity=192536 dram_eff=0.5703
bk0: 2240a 3530322i bk1: 2240a 3529913i bk2: 2240a 3530232i bk3: 2240a 3529602i bk4: 2240a 3528710i bk5: 2240a 3526912i bk6: 2240a 3528595i bk7: 2240a 3527975i bk8: 2240a 3528696i bk9: 2240a 3527407i bk10: 2192a 3529277i bk11: 2192a 3528700i bk12: 2240a 3528899i bk13: 2240a 3527654i bk14: 2244a 3529404i bk15: 2244a 3528442i 
dram_util_bins: 0 0 0 0 0 0 0 0 0 0
dram_eff_bins: 0 0 0 0 0 0 0 0 0 0
mrqq: max=64 avg=0.319495
Memory Partition 7: 
Cache L2_bank_014:
MSHR contents

Cache L2_bank_015:
MSHR contents

In Dram Latency Queue (total = 0): 
DRAM[7]: 16 bks, busW=4 BL=8 CL=12, tRRD=2 tCCD=6, tRCD=12 tRAS=28 tRP=12 tRC=40
n_cmd=3550458 n_nop=3492646 n_act=1425 n_pre=1409 n_req=17142 n_rd=35752 n_write=19226 bw_util=0.03097
n_activity=192651 dram_eff=0.5708
bk0: 2240a 3531093i bk1: 2240a 3529658i bk2: 2240a 3530380i bk3: 2240a 3529332i bk4: 2240a 3528800i bk5: 2240a 3528315i bk6: 2240a 3529553i bk7: 2240a 3528685i bk8: 2240a 3528329i bk9: 2240a 3527139i bk10: 2192a 3528757i bk11: 2192a 3528011i bk12: 2240a 3528786i bk13: 2240a 3527278i bk14: 2244a 3529713i bk15: 2244a 3528673i 
dram_util_bins: 0 0 0 0 0 0 0 0 0 0
dram_eff_bins: 0 0 0 0 0 0 0 0 0 0
mrqq: max=64 avg=0.324222
Memory Partition 8: 
Cache L2_bank_016:
MSHR contents

Cache L2_bank_017:
MSHR contents

In Dram Latency Queue (total = 0): 
DRAM[8]: 16 bks, busW=4 BL=8 CL=12, tRRD=2 tCCD=6, tRCD=12 tRAS=28 tRP=12 tRC=40
n_cmd=3550458 n_nop=3492636 n_act=1405 n_pre=1389 n_req=17127 n_rd=35752 n_write=19276 bw_util=0.031
n_activity=193150 dram_eff=0.5698
bk0: 2240a 3530810i bk1: 2240a 3529333i bk2: 2240a 3530171i bk3: 2240a 3529727i bk4: 2240a 3529687i bk5: 2240a 3528363i bk6: 2240a 3528997i bk7: 2240a 3529160i bk8: 2240a 3527927i bk9: 2240a 3527576i bk10: 2192a 3529349i bk11: 2192a 3528619i bk12: 2240a 3528890i bk13: 2240a 3528823i bk14: 2244a 3529417i bk15: 2244a 3528997i 
dram_util_bins: 0 0 0 0 0 0 0 0 0 0
dram_eff_bins: 0 0 0 0 0 0 0 0 0 0
mrqq: max=64 avg=0.319146
Memory Partition 9: 
Cache L2_bank_018:
MSHR contents

Cache L2_bank_019:
MSHR contents

In Dram Latency Queue (total = 0): 
DRAM[9]: 16 bks, busW=4 BL=8 CL=12, tRRD=2 tCCD=6, tRCD=12 tRAS=28 tRP=12 tRC=40
n_cmd=3550458 n_nop=3492547 n_act=1461 n_pre=1445 n_req=17136 n_rd=35752 n_write=19253 bw_util=0.03098
n_activity=193932 dram_eff=0.5673
bk0: 2240a 3531116i bk1: 2240a 3530854i bk2: 2240a 3530043i bk3: 2240a 3529292i bk4: 2240a 3529358i bk5: 2240a 3528073i bk6: 2240a 3528911i bk7: 2240a 3528679i bk8: 2240a 3528727i bk9: 2240a 3528334i bk10: 2192a 3529819i bk11: 2192a 3527688i bk12: 2240a 3528727i bk13: 2240a 3528391i bk14: 2244a 3529189i bk15: 2244a 3528429i 
dram_util_bins: 0 0 0 0 0 0 0 0 0 0
dram_eff_bins: 0 0 0 0 0 0 0 0 0 0
mrqq: max=64 avg=0.32064
Memory Partition 10: 
Cache L2_bank_020:
MSHR contents

Cache L2_bank_021:
MSHR contents

In Dram Latency Queue (total = 0): 
DRAM[10]: 16 bks, busW=4 BL=8 CL=12, tRRD=2 tCCD=6, tRCD=12 tRAS=28 tRP=12 tRC=40
n_cmd=3550458 n_nop=3492386 n_act=1544 n_pre=1528 n_req=17122 n_rd=35748 n_write=19252 bw_util=0.03098
n_activity=193520 dram_eff=0.5684
bk0: 2240a 3530307i bk1: 2240a 3528806i bk2: 2240a 3529335i bk3: 2240a 3528344i bk4: 2240a 3529149i bk5: 2240a 3527131i bk6: 2240a 3529348i bk7: 2240a 3527960i bk8: 2240a 3528826i bk9: 2240a 3527284i bk10: 2192a 3528567i bk11: 2192a 3528048i bk12: 2240a 3529646i bk13: 2240a 3527349i bk14: 2244a 3529354i bk15: 2240a 3528542i 
dram_util_bins: 0 0 0 0 0 0 0 0 0 0
dram_eff_bins: 0 0 0 0 0 0 0 0 0 0
mrqq: max=64 avg=0.323844

========= L2 cache stats =========
L2_cache_bank[0]: Access = 20620, Miss = 4469, Miss_rate = 0.217, Pending_hits = 6873, Reservation_fails = 5
L2_cache_bank[1]: Access = 20905, Miss = 4468, Miss_rate = 0.214, Pending_hits = 7017, Reservation_fails = 7
L2_cache_bank[2]: Access = 20570, Miss = 4469, Miss_rate = 0.217, Pending_hits = 6837, Reservation_fails = 2
L2_cache_bank[3]: Access = 20910, Miss = 4469, Miss_rate = 0.214, Pending_hits = 7019, Reservation_fails = 3
L2_cache_bank[4]: Access = 20562, Miss = 4469, Miss_rate = 0.217, Pending_hits = 6746, Reservation_fails = 6
L2_cache_bank[5]: Access = 20901, Miss = 4469, Miss_rate = 0.214, Pending_hits = 6979, Reservation_fails = 7
L2_cache_bank[6]: Access = 20556, Miss = 4469, Miss_rate = 0.217, Pending_hits = 6876, Reservation_fails = 6
L2_cache_bank[7]: Access = 20897, Miss = 4469, Miss_rate = 0.214, Pending_hits = 6983, Reservation_fails = 7
L2_cache_bank[8]: Access = 20582, Miss = 4470, Miss_rate = 0.217, Pending_hits = 6838, Reservation_fails = 6
L2_cache_bank[9]: Access = 20926, Miss = 4470, Miss_rate = 0.214, Pending_hits = 6987, Reservation_fails = 4
L2_cache_bank[10]: Access = 20583, Miss = 4469, Miss_rate = 0.217, Pending_hits = 6866, Reservation_fails = 5
L2_cache_bank[11]: Access = 20925, Miss = 4469, Miss_rate = 0.214, Pending_hits = 7000, Reservation_fails = 10
L2_cache_bank[12]: Access = 20590, Miss = 4469, Miss_rate = 0.217, Pending_hits = 6863, Reservation_fails = 9
L2_cache_bank[13]: Access = 20929, Miss = 4469, Miss_rate = 0.214, Pending_hits = 7061, Reservation_fails = 7
L2_cache_bank[14]: Access = 20586, Miss = 4469, Miss_rate = 0.217, Pending_hits = 6799, Reservation_fails = 9
L2_cache_bank[15]: Access = 20925, Miss = 4469, Miss_rate = 0.214, Pending_hits = 7002, Reservation_fails = 8
L2_cache_bank[16]: Access = 20580, Miss = 4469, Miss_rate = 0.217, Pending_hits = 6781, Reservation_fails = 6
L2_cache_bank[17]: Access = 20920, Miss = 4469, Miss_rate = 0.214, Pending_hits = 7059, Reservation_fails = 11
L2_cache_bank[18]: Access = 20578, Miss = 4469, Miss_rate = 0.217, Pending_hits = 6888, Reservation_fails = 8
L2_cache_bank[19]: Access = 20921, Miss = 4469, Miss_rate = 0.214, Pending_hits = 6951, Reservation_fails = 5
L2_cache_bank[20]: Access = 20581, Miss = 4469, Miss_rate = 0.217, Pending_hits = 6823, Reservation_fails = 3
L2_cache_bank[21]: Access = 20897, Miss = 4468, Miss_rate = 0.214, Pending_hits = 6944, Reservation_fails = 11
L2_total_cache_accesses = 456444
L2_total_cache_misses = 98318
L2_total_cache_miss_rate = 0.2154
L2_total_cache_pending_hits = 152192
L2_total_cache_reservation_fails = 145
L2_total_cache_breakdown:
	L2_cache_stats_breakdown[GLOBAL_ACC_R][HIT] = 172569
	L2_cache_stats_breakdown[GLOBAL_ACC_R][HIT_RESERVED] = 108351
	L2_cache_stats_breakdown[GLOBAL_ACC_R][MISS] = 65536
	L2_cache_stats_breakdown[GLOBAL_ACC_R][RESERVATION_FAIL] = 3
	L2_cache_stats_breakdown[LOCAL_ACC_R][HIT] = 0
	L2_cache_stats_breakdown[LOCAL_ACC_R][HIT_RESERVED] = 0
	L2_cache_stats_breakdown[LOCAL_ACC_R][MISS] = 0
	L2_cache_stats_breakdown[LOCAL_ACC_R][RESERVATION_FAIL] = 0
	L2_cache_stats_breakdown[CONST_ACC_R][HIT] = 28
	L2_cache_stats_breakdown[CONST_ACC_R][HIT_RESERVED] = 27
	L2_cache_stats_breakdown[CONST_ACC_R][MISS] = 1
	L2_cache_stats_breakdown[CONST_ACC_R][RESERVATION_FAIL] = 0
	L2_cache_stats_breakdown[TEXTURE_ACC_R][HIT] = 0
	L2_cache_stats_breakdown[TEXTURE_ACC_R][HIT_RESERVED] = 0
	L2_cache_stats_breakdown[TEXTURE_ACC_R][MISS] = 0
	L2_cache_stats_breakdown[TEXTURE_ACC_R][RESERVATION_FAIL] = 0
	L2_cache_stats_breakdown[GLOBAL_ACC_W][HIT] = 33327
	L2_cache_stats_breakdown[GLOBAL_ACC_W][HIT_RESERVED] = 43473
	L2_cache_stats_breakdown[GLOBAL_ACC_W][MISS] = 32768
	L2_cache_stats_breakdown[GLOBAL_ACC_W][RESERVATION_FAIL] = 142
	L2_cache_stats_breakdown[LOCAL_ACC_W][HIT] = 0
	L2_cache_stats_breakdown[LOCAL_ACC_W][HIT_RESERVED] = 0
	L2_cache_stats_breakdown[LOCAL_ACC_W][MISS] = 0
	L2_cache_stats_breakdown[LOCAL_ACC_W][RESERVATION_FAIL] = 0
	L2_cache_stats_breakdown[L1_WRBK_ACC][HIT] = 0
	L2_cache_stats_breakdown[L1_WRBK_ACC][HIT_RESERVED] = 0
	L2_cache_stats_breakdown[L1_WRBK_ACC][MISS] = 0
	L2_cache_stats_breakdown[L1_WRBK_ACC][RESERVATION_FAIL] = 0
	L2_cache_stats_breakdown[L2_WRBK_ACC][HIT] = 0
	L2_cache_stats_breakdown[L2_WRBK_ACC][HIT_RESERVED] = 0
	L2_cache_stats_breakdown[L2_WRBK_ACC][MISS] = 0
	L2_cache_stats_breakdown[L2_WRBK_ACC][RESERVATION_FAIL] = 0
	L2_cache_stats_breakdown[INST_ACC_R][HIT] = 10
	L2_cache_stats_breakdown[INST_ACC_R][HIT_RESERVED] = 341
	L2_cache_stats_breakdown[INST_ACC_R][MISS] = 13
	L2_cache_stats_breakdown[INST_ACC_R][RESERVATION_FAIL] = 0
	L2_cache_stats_breakdown[L1_WR_ALLOC_R][HIT] = 0
	L2_cache_stats_breakdown[L1_WR_ALLOC_R][HIT_RESERVED] = 0
	L2_cache_stats_breakdown[L1_WR_ALLOC_R][MISS] = 0
	L2_cache_stats_breakdown[L1_WR_ALLOC_R][RESERVATION_FAIL] = 0
	L2_cache_stats_breakdown[L2_WR_ALLOC_R][HIT] = 0
	L2_cache_stats_breakdown[L2_WR_ALLOC_R][HIT_RESERVED] = 0
	L2_cache_stats_breakdown[L2_WR_ALLOC_R][MISS] = 0
	L2_cache_stats_breakdown[L2_WR_ALLOC_R][RESERVATION_FAIL] = 0
	L2_cache_stats_breakdown[GLOBAL_ACC_R][TOTAL_ACCESS] = 346456
	L2_cache_stats_breakdown[CONST_ACC_R][TOTAL_ACCESS] = 56
	L2_cache_stats_breakdown[GLOBAL_ACC_W][TOTAL_ACCESS] = 109568
	L2_cache_stats_breakdown[INST_ACC_R][TOTAL_ACCESS] = 364
L2_cache_data_port_util = 0.012
L2_cache_fill_port_util = 0.009

icnt_total_pkts_mem_to_simt=1270956
icnt_total_pkts_simt_to_mem=674556
LD_mem_lat_dist  0 0 0 0 0 0 0 0 0 0 0 0 0 0 0 0 0 0 0 0 0 0 0 0 0 0 0
ST_mem_lat_dist  0 0 0 0 0 0 0 0 0 0 0 0 0 0 0 0 0 0 0 0 0 0 0 0 0 0 0
----------------------------Interconnect-DETAILS--------------------------------
Class 0:
Packet latency average = 16.5807
	minimum = 6
	maximum = 752
Network latency average = 13.0856
	minimum = 6
	maximum = 747
Slowest packet = 534860
Flit latency average = 13.0028
	minimum = 6
	maximum = 743
Slowest flit = 1143041
Fragmentation average = 0.00154674
	minimum = 0
	maximum = 658
Injected packet rate average = 0.00477431
	minimum = 0.00409266 (at node 1)
	maximum = 0.00547283 (at node 41)
Accepted packet rate average = 0.00477431
	minimum = 0.00409266 (at node 1)
	maximum = 0.00547283 (at node 41)
Injected flit rate average = 0.0101748
	minimum = 0.00617625 (at node 1)
	maximum = 0.0152295 (at node 37)
Accepted flit rate average= 0.0101748
	minimum = 0.00797899 (at node 34)
	maximum = 0.0120902 (at node 17)
Injected packet length average = 2.13116
Accepted packet length average = 2.13116
Total in-flight flits = 0 (0 measured)
====== Overall Traffic Statistics ======
====== Traffic class 0 ======
Packet latency average = 16.5807 (1 samples)
	minimum = 6 (1 samples)
	maximum = 752 (1 samples)
Network latency average = 13.0856 (1 samples)
	minimum = 6 (1 samples)
	maximum = 747 (1 samples)
Flit latency average = 13.0028 (1 samples)
	minimum = 6 (1 samples)
	maximum = 743 (1 samples)
Fragmentation average = 0.00154674 (1 samples)
	minimum = 0 (1 samples)
	maximum = 658 (1 samples)
Injected packet rate average = 0.00477431 (1 samples)
	minimum = 0.00409266 (1 samples)
	maximum = 0.00547283 (1 samples)
Accepted packet rate average = 0.00477431 (1 samples)
	minimum = 0.00409266 (1 samples)
	maximum = 0.00547283 (1 samples)
Injected flit rate average = 0.0101748 (1 samples)
	minimum = 0.00617625 (1 samples)
	maximum = 0.0152295 (1 samples)
Accepted flit rate average = 0.0101748 (1 samples)
	minimum = 0.00797899 (1 samples)
	maximum = 0.0120902 (1 samples)
Injected packet size average = 2.13116 (1 samples)
Accepted packet size average = 2.13116 (1 samples)
Hops average = 1 (1 samples)
----------------------------END-of-Interconnect-DETAILS-------------------------


gpgpu_simulation_time = 0 days, 0 hrs, 46 min, 43 sec (2803 sec)
gpgpu_simulation_rate = 148222 (inst/sec)
gpgpu_simulation_rate = 761 (cycle/sec)

GPGPU-Sim PTX: cudaLaunch for 0x0x401ae2 (mode=performance simulation) on stream 0
GPGPU-Sim PTX: pushing kernel '_Z14calculate_tempiPfS_S_iiiiffffff' to stream 0, gridDim= (86,86,1) blockDim = (16,16,1) 
GPGPU-Sim uArch: Shader 7 bind to kernel 2 '_Z14calculate_tempiPfS_S_iiiiffffff'
GPGPU-Sim uArch: Shader 8 bind to kernel 2 '_Z14calculate_tempiPfS_S_iiiiffffff'
GPGPU-Sim uArch: Shader 9 bind to kernel 2 '_Z14calculate_tempiPfS_S_iiiiffffff'
GPGPU-Sim uArch: Shader 10 bind to kernel 2 '_Z14calculate_tempiPfS_S_iiiiffffff'
GPGPU-Sim uArch: Shader 11 bind to kernel 2 '_Z14calculate_tempiPfS_S_iiiiffffff'
GPGPU-Sim uArch: Shader 12 bind to kernel 2 '_Z14calculate_tempiPfS_S_iiiiffffff'
GPGPU-Sim uArch: Shader 13 bind to kernel 2 '_Z14calculate_tempiPfS_S_iiiiffffff'
GPGPU-Sim uArch: Shader 14 bind to kernel 2 '_Z14calculate_tempiPfS_S_iiiiffffff'
GPGPU-Sim uArch: Shader 15 bind to kernel 2 '_Z14calculate_tempiPfS_S_iiiiffffff'
GPGPU-Sim uArch: Shader 16 bind to kernel 2 '_Z14calculate_tempiPfS_S_iiiiffffff'
GPGPU-Sim uArch: Shader 17 bind to kernel 2 '_Z14calculate_tempiPfS_S_iiiiffffff'
GPGPU-Sim uArch: Shader 18 bind to kernel 2 '_Z14calculate_tempiPfS_S_iiiiffffff'
GPGPU-Sim uArch: Shader 19 bind to kernel 2 '_Z14calculate_tempiPfS_S_iiiiffffff'
GPGPU-Sim uArch: Shader 20 bind to kernel 2 '_Z14calculate_tempiPfS_S_iiiiffffff'
GPGPU-Sim uArch: Shader 21 bind to kernel 2 '_Z14calculate_tempiPfS_S_iiiiffffff'
GPGPU-Sim uArch: Shader 22 bind to kernel 2 '_Z14calculate_tempiPfS_S_iiiiffffff'
GPGPU-Sim uArch: Shader 23 bind to kernel 2 '_Z14calculate_tempiPfS_S_iiiiffffff'
GPGPU-Sim uArch: Shader 24 bind to kernel 2 '_Z14calculate_tempiPfS_S_iiiiffffff'
GPGPU-Sim uArch: Shader 25 bind to kernel 2 '_Z14calculate_tempiPfS_S_iiiiffffff'
GPGPU-Sim uArch: Shader 26 bind to kernel 2 '_Z14calculate_tempiPfS_S_iiiiffffff'
GPGPU-Sim uArch: Shader 27 bind to kernel 2 '_Z14calculate_tempiPfS_S_iiiiffffff'
GPGPU-Sim uArch: Shader 0 bind to kernel 2 '_Z14calculate_tempiPfS_S_iiiiffffff'
GPGPU-Sim uArch: Shader 1 bind to kernel 2 '_Z14calculate_tempiPfS_S_iiiiffffff'
GPGPU-Sim uArch: Shader 2 bind to kernel 2 '_Z14calculate_tempiPfS_S_iiiiffffff'
GPGPU-Sim uArch: Shader 3 bind to kernel 2 '_Z14calculate_tempiPfS_S_iiiiffffff'
GPGPU-Sim uArch: Shader 4 bind to kernel 2 '_Z14calculate_tempiPfS_S_iiiiffffff'
GPGPU-Sim uArch: Shader 5 bind to kernel 2 '_Z14calculate_tempiPfS_S_iiiiffffff'
GPGPU-Sim uArch: Shader 6 bind to kernel 2 '_Z14calculate_tempiPfS_S_iiiiffffff'
GPGPU-Sim uArch: Shader 7 bind to kernel 2 '_Z14calculate_tempiPfS_S_iiiiffffff'
GPGPU-Sim uArch: Shader 8 bind to kernel 2 '_Z14calculate_tempiPfS_S_iiiiffffff'
GPGPU-Sim uArch: Shader 9 bind to kernel 2 '_Z14calculate_tempiPfS_S_iiiiffffff'
GPGPU-Sim uArch: Shader 10 bind to kernel 2 '_Z14calculate_tempiPfS_S_iiiiffffff'
GPGPU-Sim uArch: Shader 10 bind to kernel 2 '_Z14calculate_tempiPfS_S_iiiiffffff'
GPGPU-Sim uArch: Shader 18 bind to kernel 2 '_Z14calculate_tempiPfS_S_iiiiffffff'
GPGPU-Sim uArch: Shader 19 bind to kernel 2 '_Z14calculate_tempiPfS_S_iiiiffffff'
GPGPU-Sim uArch: Shader 21 bind to kernel 2 '_Z14calculate_tempiPfS_S_iiiiffffff'
GPGPU-Sim uArch: Shader 22 bind to kernel 2 '_Z14calculate_tempiPfS_S_iiiiffffff'
GPGPU-Sim uArch: Shader 27 bind to kernel 2 '_Z14calculate_tempiPfS_S_iiiiffffff'
GPGPU-Sim uArch: Shader 14 bind to kernel 2 '_Z14calculate_tempiPfS_S_iiiiffffff'
GPGPU-Sim uArch: Shader 15 bind to kernel 2 '_Z14calculate_tempiPfS_S_iiiiffffff'
GPGPU-Sim uArch: Shader 24 bind to kernel 2 '_Z14calculate_tempiPfS_S_iiiiffffff'
GPGPU-Sim uArch: Shader 25 bind to kernel 2 '_Z14calculate_tempiPfS_S_iiiiffffff'
GPGPU-Sim uArch: Shader 1 bind to kernel 2 '_Z14calculate_tempiPfS_S_iiiiffffff'
GPGPU-Sim uArch: Shader 1 bind to kernel 2 '_Z14calculate_tempiPfS_S_iiiiffffff'
GPGPU-Sim uArch: Shader 2 bind to kernel 2 '_Z14calculate_tempiPfS_S_iiiiffffff'
GPGPU-Sim uArch: Shader 3 bind to kernel 2 '_Z14calculate_tempiPfS_S_iiiiffffff'
GPGPU-Sim uArch: Shader 4 bind to kernel 2 '_Z14calculate_tempiPfS_S_iiiiffffff'
GPGPU-Sim uArch: Shader 5 bind to kernel 2 '_Z14calculate_tempiPfS_S_iiiiffffff'
GPGPU-Sim uArch: Shader 6 bind to kernel 2 '_Z14calculate_tempiPfS_S_iiiiffffff'
GPGPU-Sim uArch: Shader 8 bind to kernel 2 '_Z14calculate_tempiPfS_S_iiiiffffff'
GPGPU-Sim uArch: Shader 9 bind to kernel 2 '_Z14calculate_tempiPfS_S_iiiiffffff'
GPGPU-Sim uArch: Shader 11 bind to kernel 2 '_Z14calculate_tempiPfS_S_iiiiffffff'
GPGPU-Sim uArch: Shader 12 bind to kernel 2 '_Z14calculate_tempiPfS_S_iiiiffffff'
GPGPU-Sim uArch: Shader 14 bind to kernel 2 '_Z14calculate_tempiPfS_S_iiiiffffff'
GPGPU-Sim uArch: Shader 15 bind to kernel 2 '_Z14calculate_tempiPfS_S_iiiiffffff'
GPGPU-Sim uArch: Shader 17 bind to kernel 2 '_Z14calculate_tempiPfS_S_iiiiffffff'
GPGPU-Sim uArch: Shader 24 bind to kernel 2 '_Z14calculate_tempiPfS_S_iiiiffffff'
[...]
F:   597353----T:   658189 	 St: c0481000 Sz: 520192 	 Sm: 0 	 T: memcpy_h2d(41.077652)
F:   682509----T:   685595 	 St: c0100000 Sz: 12288 	 Sm: 0 	 T: memcpy_h2d(2.083727)
F:   685595----T:   805743 	 St: c0103000 Sz: 1036288 	 Sm: 0 	 T: memcpy_h2d(81.126266)
F:   805743----T:   808348 	 St: c0900000 Sz: 4096 	 Sm: 0 	 T: memcpy_h2d(1.758947)
F:   808348----T:   929437 	 St: c0901000 Sz: 1044480 	 Sm: 0 	 T: memcpy_h2d(81.761650)
F:   934917----T:   937522 	 St: c0500000 Sz: 4096 	 Sm: 0 	 T: memcpy_h2d(1.758947)
F:   937522----T:  1058611 	 St: c0501000 Sz: 1044480 	 Sm: 0 	 T: memcpy_h2d(81.761650)
F:  1118532----T:  1121618 	 St: c0200000 Sz: 12288 	 Sm: 0 	 T: memcpy_h2d(2.083727)
F:  1121618----T:  1128940 	 St: c0203000 Sz: 53248 	 Sm: 0 	 T: memcpy_h2d(4.943957)
F:  1128940----T:  1131545 	 St: c0a00000 Sz: 4096 	 Sm: 0 	 T: memcpy_h2d(1.758947)
F:  1131545----T:  1139785 	 St: c0a01000 Sz: 61440 	 Sm: 0 	 T: memcpy_h2d(5.563808)
F:  1140390----T:  1142995 	 St: c0210000 Sz: 4096 	 Sm: 0 	 T: memcpy_h2d(1.758947)
F:  1142995----T:  1151235 	 St: c0211000 Sz: 61440 	 Sm: 0 	 T: memcpy_h2d(5.563808)
F:  1151235----T:  1153840 	 St: c0600000 Sz: 4096 	 Sm: 0 	 T: memcpy_h2d(1.758947)
F:  1153840----T:  1162080 	 St: c0601000 Sz: 61440 	 Sm: 0 	 T: memcpy_h2d(5.563808)
F:  1162080----T:  1164685 	 St: c0a10000 Sz: 4096 	 Sm: 0 	 T: memcpy_h2d(1.758947)
F:  1164685----T:  1172925 	 St: c0a11000 Sz: 61440 	 Sm: 0 	 T: memcpy_h2d(5.563808)
F:  1174131----T:  1177217 	 St: c0220000 Sz: 12288 	 Sm: 0 	 T: memcpy_h2d(2.083727)
F:  1177217----T:  1191975 	 St: c0223000 Sz: 118784 	 Sm: 0 	 T: memcpy_h2d(9.964889)
F:  1191975----T:  1195061 	 St: c0610000 Sz: 12288 	 Sm: 0 	 T: memcpy_h2d(2.083727)
F:  1195061----T:  1202383 	 St: c0613000 Sz: 53248 	 Sm: 0 	 T: memcpy_h2d(4.943957)
F:  1202383----T:  1204988 	 St: c0a20000 Sz: 4096 	 Sm: 0 	 T: memcpy_h2d(1.758947)
F:  1204988----T:  1220683 	 St: c0a21000 Sz: 126976 	 Sm: 0 	 T: memcpy_h2d(10.597569)
F:  1222294----T:  1224899 	 St: c0240000 Sz: 4096 	 Sm: 0 	 T: memcpy_h2d(1.758947)
F:  1224899----T:  1255622 	 St: c0241000 Sz: 258048 	 Sm: 0 	 T: memcpy_h2d(20.744766)
F:  1255622----T:  1258227 	 St: c0620000 Sz: 4096 	 Sm: 0 	 T: memcpy_h2d(1.758947)
F:  1258227----T:  1273922 	 St: c0621000 Sz: 126976 	 Sm: 0 	 T: memcpy_h2d(10.597569)
F:  1273922----T:  1276527 	 St: c0a40000 Sz: 4096 	 Sm: 0 	 T: memcpy_h2d(1.758947)
F:  1276527----T:  1307250 	 St: c0a41000 Sz: 258048 	 Sm: 0 	 T: memcpy_h2d(20.744766)
F:  1314636----T:  1317241 	 St: c0640000 Sz: 4096 	 Sm: 0 	 T: memcpy_h2d(1.758947)
F:  1317241----T:  1347964 	 St: c0641000 Sz: 258048 	 Sm: 0 	 T: memcpy_h2d(20.744766)
F:  1356580----T:  1359666 	 St: c0280000 Sz: 12288 	 Sm: 0 	 T: memcpy_h2d(2.083727)
F:  1359666----T:  1419561 	 St: c0283000 Sz: 512000 	 Sm: 0 	 T: memcpy_h2d(40.442268)
F:  1419561----T:  1422166 	 St: c0a80000 Sz: 4096 	 Sm: 0 	 T: memcpy_h2d(1.758947)
F:  1422166----T:  1483002 	 St: c0a81000 Sz: 520192 	 Sm: 0 	 T: memcpy_h2d(41.077652)
F:  1488406----T:  1491011 	 St: c0680000 Sz: 4096 	 Sm: 0 	 T: memcpy_h2d(1.758947)
F:  1491011----T:  1551847 	 St: c0681000 Sz: 520192 	 Sm: 0 	 T: memcpy_h2d(41.077652)
F:  1575499----T:  1578104 	 St: c0300000 Sz: 4096 	 Sm: 0 	 T: memcpy_h2d(1.758947)
F:  1578104----T:  1699193 	 St: c0301000 Sz: 1044480 	 Sm: 0 	 T: memcpy_h2d(81.761650)
F:  1699568----T:  1702173 	 St: c0b00000 Sz: 4096 	 Sm: 0 	 T: memcpy_h2d(1.758947)
F:  1699568----T:  1708270 	 St: c0800000 Sz: 65536 	 Sm: 0 	 T: write_back(5.875760)
F:  1708271----T:  1829360 	 St: c0b01000 Sz: 1044480 	 Sm: 0 	 T: memcpy_h2d(81.761650)
F:  1708271----T:  1716973 	 St: c0810000 Sz: 65536 	 Sm: 0 	 T: write_back(5.875760)
F:  1835311----T:  1837916 	 St: c0700000 Sz: 4096 	 Sm: 0 	 T: memcpy_h2d(1.758947)
F:  1835311----T:  1844013 	 St: c0840000 Sz: 65536 	 Sm: 0 	 T: write_back(5.875760)
F:  1844013----T:  1852715 	 St: c0850000 Sz: 65536 	 Sm: 0 	 T: write_back(5.875760)
F:  1852715----T:  1868878 	 St: c0820000 Sz: 131072 	 Sm: 0 	 T: write_back(10.913572)
F:  1868878----T:  1885041 	 St: c0860000 Sz: 131072 	 Sm: 0 	 T: write_back(10.913572)
F:  1885041----T:  1946348 	 St: c0880000 Sz: 524288 	 Sm: 0 	 T: write_back(41.395679)
F:  1946348----T:  2067437 	 St: c0701000 Sz: 1044480 	 Sm: 0 	 T: memcpy_h2d(81.761650)
F:  1946348----T:  2067908 	 St: c0900000 Sz: 1048576 	 Sm: 0 	 T: write_back(82.079674)
F:  2356384----T:  3352277 	 	 	 Kl: 2 	 Sm: 0 	 T: kernel_launch(672.446350)
F:  2357124----T:  2360210 	 St: c0800000 Sz: 12288 	 Sm: 0 	 T: memcpy_h2d(2.083727)
F:  2360210----T:  2367532 	 St: c0803000 Sz: 53248 	 Sm: 0 	 T: memcpy_h2d(4.943957)
F:  2367532----T:  2370618 	 St: c0810000 Sz: 12288 	 Sm: 0 	 T: memcpy_h2d(2.083727)
F:  2370618----T:  2377940 	 St: c0813000 Sz: 53248 	 Sm: 0 	 T: memcpy_h2d(4.943957)
F:  2377940----T:  2381026 	 St: c0820000 Sz: 12288 	 Sm: 0 	 T: memcpy_h2d(2.083727)
F:  2381026----T:  2395784 	 St: c0823000 Sz: 118784 	 Sm: 0 	 T: memcpy_h2d(9.964889)
F:  2404185----T:  2406790 	 St: c0840000 Sz: 4096 	 Sm: 0 	 T: memcpy_h2d(1.758947)
F:  2406790----T:  2437513 	 St: c0841000 Sz: 258048 	 Sm: 0 	 T: memcpy_h2d(20.744766)
F:  2452074----T:  2455160 	 St: c0880000 Sz: 12288 	 Sm: 0 	 T: memcpy_h2d(2.083727)
F:  2452074----T:  2460776 	 St: c0a10000 Sz: 65536 	 Sm: 0 	 T: write_back(5.875760)
F:  2460777----T:  2520672 	 St: c0883000 Sz: 512000 	 Sm: 0 	 T: memcpy_h2d(40.442268)
F:  2460777----T:  2469479 	 St: c0a20000 Sz: 65536 	 Sm: 0 	 T: write_back(5.875760)
F:  2551432----T:  2554518 	 St: c0900000 Sz: 12288 	 Sm: 0 	 T: memcpy_h2d(2.083727)
F:  2551432----T:  2560134 	 St: c0a40000 Sz: 65536 	 Sm: 0 	 T: write_back(5.875760)
F:  2560134----T:  2568836 	 St: c0a50000 Sz: 65536 	 Sm: 0 	 T: write_back(5.875760)
F:  2568836----T:  2577538 	 St: c0a00000 Sz: 65536 	 Sm: 0 	 T: write_back(5.875760)
F:  2577538----T:  2586240 	 St: c0a30000 Sz: 65536 	 Sm: 0 	 T: write_back(5.875760)
F:  2586240----T:  2602403 	 St: c0a60000 Sz: 131072 	 Sm: 0 	 T: write_back(10.913572)
F:  2602403----T:  2663710 	 St: c0a80000 Sz: 524288 	 Sm: 0 	 T: write_back(41.395679)
F:  2663710----T:  2783858 	 St: c0903000 Sz: 1036288 	 Sm: 0 	 T: memcpy_h2d(81.126266)
F:  2663710----T:  2785270 	 St: c0b00000 Sz: 1048576 	 Sm: 0 	 T: write_back(82.079674)
F:  2851594----T:  2854680 	 St: c0a00000 Sz: 12288 	 Sm: 0 	 T: memcpy_h2d(2.083727)
F:  2854680----T:  2862002 	 St: c0a03000 Sz: 53248 	 Sm: 0 	 T: memcpy_h2d(4.943957)
F:  2863365----T:  2865970 	 St: c0a10000 Sz: 4096 	 Sm: 0 	 T: memcpy_h2d(1.758947)
F:  2865970----T:  2874210 	 St: c0a11000 Sz: 61440 	 Sm: 0 	 T: memcpy_h2d(5.563808)
F:  2875787----T:  2878392 	 St: c0a20000 Sz: 4096 	 Sm: 0 	 T: memcpy_h2d(1.758947)
F:  2878392----T:  2894087 	 St: c0a21000 Sz: 126976 	 Sm: 0 	 T: memcpy_h2d(10.597569)
F:  2896069----T:  2898674 	 St: c0a40000 Sz: 4096 	 Sm: 0 	 T: memcpy_h2d(1.758947)
F:  2898674----T:  2929397 	 St: c0a41000 Sz: 258048 	 Sm: 0 	 T: memcpy_h2d(20.744766)
F:  2945815----T:  2948901 	 St: c0a80000 Sz: 12288 	 Sm: 0 	 T: memcpy_h2d(2.083727)
F:  2945815----T:  2954517 	 St: c0810000 Sz: 65536 	 Sm: 0 	 T: write_back(5.875760)
F:  2954518----T:  3014413 	 St: c0a83000 Sz: 512000 	 Sm: 0 	 T: memcpy_h2d(40.442268)
F:  2954518----T:  2963220 	 St: c0820000 Sz: 65536 	 Sm: 0 	 T: write_back(5.875760)
F:  3044579----T:  3047184 	 St: c0b00000 Sz: 4096 	 Sm: 0 	 T: memcpy_h2d(1.758947)
F:  3044579----T:  3053281 	 St: c0840000 Sz: 65536 	 Sm: 0 	 T: write_back(5.875760)
F:  3053281----T:  3061983 	 St: c0850000 Sz: 65536 	 Sm: 0 	 T: write_back(5.875760)
F:  3061983----T:  3070685 	 St: c0800000 Sz: 65536 	 Sm: 0 	 T: write_back(5.875760)
F:  3070685----T:  3079387 	 St: c0830000 Sz: 65536 	 Sm: 0 	 T: write_back(5.875760)
F:  3079387----T:  3095550 	 St: c0860000 Sz: 131072 	 Sm: 0 	 T: write_back(10.913572)
F:  3095550----T:  3156857 	 St: c0880000 Sz: 524288 	 Sm: 0 	 T: write_back(41.395679)
F:  3156857----T:  3277946 	 St: c0b01000 Sz: 1044480 	 Sm: 0 	 T: memcpy_h2d(81.761650)
F:  3156857----T:  3278417 	 St: c0900000 Sz: 1048576 	 Sm: 0 	 T: write_back(82.079674)
F:  3574427----T:  4569891 	 	 	 Kl: 3 	 Sm: 0 	 T: kernel_launch(672.156677)
F:  3575166----T:  3578252 	 St: c0800000 Sz: 12288 	 Sm: 0 	 T: memcpy_h2d(2.083727)
F:  3578252----T:  3585574 	 St: c0803000 Sz: 53248 	 Sm: 0 	 T: memcpy_h2d(4.943957)
F:  3585574----T:  3588660 	 St: c0810000 Sz: 12288 	 Sm: 0 	 T: memcpy_h2d(2.083727)
F:  3588660----T:  3595982 	 St: c0813000 Sz: 53248 	 Sm: 0 	 T: memcpy_h2d(4.943957)
F:  3595982----T:  3599068 	 St: c0820000 Sz: 12288 	 Sm: 0 	 T: memcpy_h2d(2.083727)
F:  3599068----T:  3613826 	 St: c0823000 Sz: 118784 	 Sm: 0 	 T: memcpy_h2d(9.964889)
F:  3622249----T:  3625335 	 St: c0840000 Sz: 12288 	 Sm: 0 	 T: memcpy_h2d(2.083727)
F:  3625335----T:  3655118 	 St: c0843000 Sz: 249856 	 Sm: 0 	 T: memcpy_h2d(20.110062)
F:  3669606----T:  3672692 	 St: c0880000 Sz: 12288 	 Sm: 0 	 T: memcpy_h2d(2.083727)
F:  3669606----T:  3678308 	 St: c0a10000 Sz: 65536 	 Sm: 0 	 T: write_back(5.875760)
F:  3678309----T:  3738204 	 St: c0883000 Sz: 512000 	 Sm: 0 	 T: memcpy_h2d(40.442268)
F:  3678309----T:  3687011 	 St: c0a20000 Sz: 65536 	 Sm: 0 	 T: write_back(5.875760)
F:  3769182----T:  3772268 	 St: c0900000 Sz: 12288 	 Sm: 0 	 T: memcpy_h2d(2.083727)
F:  3769182----T:  3777884 	 St: c0a40000 Sz: 65536 	 Sm: 0 	 T: write_back(5.875760)
F:  3777884----T:  3786586 	 St: c0a50000 Sz: 65536 	 Sm: 0 	 T: write_back(5.875760)
F:  3786586----T:  3795288 	 St: c0a00000 Sz: 65536 	 Sm: 0 	 T: write_back(5.875760)
F:  3795288----T:  3803990 	 St: c0a30000 Sz: 65536 	 Sm: 0 	 T: write_back(5.875760)
F:  3803990----T:  3820153 	 St: c0a60000 Sz: 131072 	 Sm: 0 	 T: write_back(10.913572)
F:  3820153----T:  3881460 	 St: c0a80000 Sz: 524288 	 Sm: 0 	 T: write_back(41.395679)
F:  3881460----T:  4001608 	 St: c0903000 Sz: 1036288 	 Sm: 0 	 T: memcpy_h2d(81.126266)
F:  3881460----T:  4003020 	 St: c0b00000 Sz: 1048576 	 Sm: 0 	 T: write_back(82.079674)
F:  4069239----T:  4072325 	 St: c0a00000 Sz: 12288 	 Sm: 0 	 T: memcpy_h2d(2.083727)
F:  4072325----T:  4079647 	 St: c0a03000 Sz: 53248 	 Sm: 0 	 T: memcpy_h2d(4.943957)
F:  4081009----T:  4083614 	 St: c0a10000 Sz: 4096 	 Sm: 0 	 T: memcpy_h2d(1.758947)
F:  4083614----T:  4091854 	 St: c0a11000 Sz: 61440 	 Sm: 0 	 T: memcpy_h2d(5.563808)
F:  4093419----T:  4097231 	 St: c0a20000 Sz: 20480 	 Sm: 0 	 T: memcpy_h2d(2.573936)
F:  4097231----T:  4111053 	 St: c0a25000 Sz: 110592 	 Sm: 0 	 T: memcpy_h2d(9.332883)
F:  4113057----T:  4115662 	 St: c0a40000 Sz: 4096 	 Sm: 0 	 T: memcpy_h2d(1.758947)
F:  4115662----T:  4146385 	 St: c0a41000 Sz: 258048 	 Sm: 0 	 T: memcpy_h2d(20.744766)
F:  4162895----T:  4165981 	 St: c0a80000 Sz: 12288 	 Sm: 0 	 T: memcpy_h2d(2.083727)
F:  4162895----T:  4171597 	 St: c0810000 Sz: 65536 	 Sm: 0 	 T: write_back(5.875760)
F:  4171598----T:  4231493 	 St: c0a83000 Sz: 512000 	 Sm: 0 	 T: memcpy_h2d(40.442268)
F:  4171598----T:  4180300 	 St: c0820000 Sz: 65536 	 Sm: 0 	 T: write_back(5.875760)
F:  4261695----T:  4264300 	 St: c0b00000 Sz: 4096 	 Sm: 0 	 T: memcpy_h2d(1.758947)
F:  4261695----T:  4270397 	 St: c0840000 Sz: 65536 	 Sm: 0 	 T: write_back(5.875760)
F:  4270397----T:  4279099 	 St: c0850000 Sz: 65536 	 Sm: 0 	 T: write_back(5.875760)
F:  4279099----T:  4287801 	 St: c0800000 Sz: 65536 	 Sm: 0 	 T: write_back(5.875760)
F:  4287801----T:  4296503 	 St: c0830000 Sz: 65536 	 Sm: 0 	 T: write_back(5.875760)
F:  4296503----T:  4312666 	 St: c0860000 Sz: 131072 	 Sm: 0 	 T: write_back(10.913572)
F:  4312666----T:  4373973 	 St: c0880000 Sz: 524288 	 Sm: 0 	 T: write_back(41.395679)
F:  4373973----T:  4495062 	 St: c0b01000 Sz: 1044480 	 Sm: 0 	 T: memcpy_h2d(81.761650)
F:  4373973----T:  4495533 	 St: c0900000 Sz: 1048576 	 Sm: 0 	 T: write_back(82.079674)
F:  4792041----T:  5788928 	 	 	 Kl: 4 	 Sm: 0 	 T: kernel_launch(673.117493)
F:  4792774----T:  4795860 	 St: c0800000 Sz: 12288 	 Sm: 0 	 T: memcpy_h2d(2.083727)
F:  4795860----T:  4803182 	 St: c0803000 Sz: 53248 	 Sm: 0 	 T: memcpy_h2d(4.943957)
F:  4803182----T:  4806268 	 St: c0810000 Sz: 12288 	 Sm: 0 	 T: memcpy_h2d(2.083727)
F:  4806268----T:  4813590 	 St: c0813000 Sz: 53248 	 Sm: 0 	 T: memcpy_h2d(4.943957)
F:  4813590----T:  4816676 	 St: c0820000 Sz: 12288 	 Sm: 0 	 T: memcpy_h2d(2.083727)
F:  4816676----T:  4831434 	 St: c0823000 Sz: 118784 	 Sm: 0 	 T: memcpy_h2d(9.964889)
F:  4839807----T:  4842412 	 St: c0840000 Sz: 4096 	 Sm: 0 	 T: memcpy_h2d(1.758947)
F:  4842412----T:  4873135 	 St: c0841000 Sz: 258048 	 Sm: 0 	 T: memcpy_h2d(20.744766)
F:  4887728----T:  4890814 	 St: c0880000 Sz: 12288 	 Sm: 0 	 T: memcpy_h2d(2.083727)
F:  4887728----T:  4896430 	 St: c0a10000 Sz: 65536 	 Sm: 0 	 T: write_back(5.875760)
F:  4896431----T:  4956326 	 St: c0883000 Sz: 512000 	 Sm: 0 	 T: memcpy_h2d(40.442268)
F:  4896431----T:  4905133 	 St: c0a20000 Sz: 65536 	 Sm: 0 	 T: write_back(5.875760)
F:  4987538----T:  4990624 	 St: c0900000 Sz: 12288 	 Sm: 0 	 T: memcpy_h2d(2.083727)
F:  4987538----T:  4996240 	 St: c0a40000 Sz: 65536 	 Sm: 0 	 T: write_back(5.875760)
F:  4996240----T:  5004942 	 St: c0a50000 Sz: 65536 	 Sm: 0 	 T: write_back(5.875760)
F:  5004942----T:  5013644 	 St: c0a00000 Sz: 65536 	 Sm: 0 	 T: write_back(5.875760)
F:  5013644----T:  5022346 	 St: c0a30000 Sz: 65536 	 Sm: 0 	 T: write_back(5.875760)
F:  5022346----T:  5038509 	 St: c0a60000 Sz: 131072 	 Sm: 0 	 T: write_back(10.913572)
F:  5038509----T:  5099816 	 St: c0a80000 Sz: 524288 	 Sm: 0 	 T: write_back(41.395679)
F:  5099816----T:  5219964 	 St: c0903000 Sz: 1036288 	 Sm: 0 	 T: memcpy_h2d(81.126266)
F:  5099816----T:  5221376 	 St: c0b00000 Sz: 1048576 	 Sm: 0 	 T: write_back(82.079674)
F:  5287684----T:  5290289 	 St: c0a00000 Sz: 4096 	 Sm: 0 	 T: memcpy_h2d(1.758947)
F:  5290289----T:  5298529 	 St: c0a01000 Sz: 61440 	 Sm: 0 	 T: memcpy_h2d(5.563808)
F:  5299883----T:  5302488 	 St: c0a10000 Sz: 4096 	 Sm: 0 	 T: memcpy_h2d(1.758947)
F:  5302488----T:  5310728 	 St: c0a11000 Sz: 61440 	 Sm: 0 	 T: memcpy_h2d(5.563808)
F:  5312302----T:  5314907 	 St: c0a20000 Sz: 4096 	 Sm: 0 	 T: memcpy_h2d(1.758947)
F:  5314907----T:  5330602 	 St: c0a21000 Sz: 126976 	 Sm: 0 	 T: memcpy_h2d(10.597569)
F:  5332543----T:  5335148 	 St: c0a40000 Sz: 4096 	 Sm: 0 	 T: memcpy_h2d(1.758947)
F:  5335148----T:  5365871 	 St: c0a41000 Sz: 258048 	 Sm: 0 	 T: memcpy_h2d(20.744766)
F:  5382414----T:  5385500 	 St: c0a80000 Sz: 12288 	 Sm: 0 	 T: memcpy_h2d(2.083727)
F:  5382414----T:  5391116 	 St: c0810000 Sz: 65536 	 Sm: 0 	 T: write_back(5.875760)
F:  5391117----T:  5451012 	 St: c0a83000 Sz: 512000 	 Sm: 0 	 T: memcpy_h2d(40.442268)
F:  5391117----T:  5399819 	 St: c0820000 Sz: 65536 	 Sm: 0 	 T: write_back(5.875760)
F:  5481227----T:  5483832 	 St: c0b00000 Sz: 4096 	 Sm: 0 	 T: memcpy_h2d(1.758947)
F:  5481227----T:  5489929 	 St: c0840000 Sz: 65536 	 Sm: 0 	 T: write_back(5.875760)
F:  5489929----T:  5498631 	 St: c0850000 Sz: 65536 	 Sm: 0 	 T: write_back(5.875760)
F:  5498631----T:  5507333 	 St: c0800000 Sz: 65536 	 Sm: 0 	 T: write_back(5.875760)
F:  5507333----T:  5516035 	 St: c0830000 Sz: 65536 	 Sm: 0 	 T: write_back(5.875760)
F:  5516035----T:  5532198 	 St: c0860000 Sz: 131072 	 Sm: 0 	 T: write_back(10.913572)
F:  5532198----T:  5593505 	 St: c0880000 Sz: 524288 	 Sm: 0 	 T: write_back(41.395679)
F:  5593505----T:  5714594 	 St: c0b01000 Sz: 1044480 	 Sm: 0 	 T: memcpy_h2d(81.761650)
F:  5593505----T:  5715065 	 St: c0900000 Sz: 1048576 	 Sm: 0 	 T: write_back(82.079674)
F:  5788928----T:  5791533 	 St: 0 Sz: 4096 	 Sm: 0 	 T: device_sync(1.758947)
F:  5788928----T:  5797168 	 St: 0 Sz: 61440 	 Sm: 0 	 T: device_sync(5.563808)
F:  5799773----T:  5802378 	 St: 0 Sz: 4096 	 Sm: 0 	 T: device_sync(1.758947)
F:  5799773----T:  5808013 	 St: 0 Sz: 61440 	 Sm: 0 	 T: device_sync(5.563808)
F:  5810618----T:  5813223 	 St: 0 Sz: 4096 	 Sm: 0 	 T: device_sync(1.758947)
F:  5810618----T:  5826313 	 St: 0 Sz: 126976 	 Sm: 0 	 T: device_sync(10.597569)
F:  5828918----T:  5831523 	 St: 0 Sz: 4096 	 Sm: 0 	 T: device_sync(1.758947)
F:  5828918----T:  5859641 	 St: 0 Sz: 258048 	 Sm: 0 	 T: device_sync(20.744766)
F:  5862246----T:  5864851 	 St: 0 Sz: 4096 	 Sm: 0 	 T: device_sync(1.758947)
F:  5862246----T:  5923082 	 St: 0 Sz: 520192 	 Sm: 0 	 T: device_sync(41.077652)
F:  5925687----T:  5928292 	 St: 0 Sz: 4096 	 Sm: 0 	 T: device_sync(1.758947)
F:  5925687----T:  6046776 	 St: 0 Sz: 1044480 	 Sm: 0 	 T: device_sync(81.761650)
F:  6049381----T:  6051986 	 St: 0 Sz: 4096 	 Sm: 0 	 T: device_sync(1.758947)
F:  6049381----T:  6057621 	 St: 0 Sz: 61440 	 Sm: 0 	 T: device_sync(5.563808)
F:  6060226----T:  6062831 	 St: 0 Sz: 4096 	 Sm: 0 	 T: device_sync(1.758947)
F:  6060226----T:  6068466 	 St: 0 Sz: 61440 	 Sm: 0 	 T: device_sync(5.563808)
F:  6071071----T:  6073676 	 St: 0 Sz: 4096 	 Sm: 0 	 T: device_sync(1.758947)
F:  6071071----T:  6086766 	 St: 0 Sz: 126976 	 Sm: 0 	 T: device_sync(10.597569)
F:  6089371----T:  6091976 	 St: 0 Sz: 4096 	 Sm: 0 	 T: device_sync(1.758947)
F:  6089371----T:  6120094 	 St: 0 Sz: 258048 	 Sm: 0 	 T: device_sync(20.744766)
F:  6122699----T:  6125304 	 St: 0 Sz: 4096 	 Sm: 0 	 T: device_sync(1.758947)
F:  6122699----T:  6183535 	 St: 0 Sz: 520192 	 Sm: 0 	 T: device_sync(41.077652)
F:  6186140----T:  6188745 	 St: 0 Sz: 4096 	 Sm: 0 	 T: device_sync(1.758947)
F:  6186140----T:  6307229 	 St: 0 Sz: 1044480 	 Sm: 0 	 T: device_sync(81.761650)
F:  6309834----T:  6312439 	 St: 0 Sz: 4096 	 Sm: 0 	 T: device_sync(1.758947)
F:  6309834----T:  6318074 	 St: 0 Sz: 61440 	 Sm: 0 	 T: device_sync(5.563808)
F:  6320679----T:  6323284 	 St: 0 Sz: 4096 	 Sm: 0 	 T: device_sync(1.758947)
F:  6320679----T:  6328919 	 St: 0 Sz: 61440 	 Sm: 0 	 T: device_sync(5.563808)
F:  6331524----T:  6334129 	 St: 0 Sz: 4096 	 Sm: 0 	 T: device_sync(1.758947)
F:  6331524----T:  6347219 	 St: 0 Sz: 126976 	 Sm: 0 	 T: device_sync(10.597569)
F:  6349824----T:  6352429 	 St: 0 Sz: 4096 	 Sm: 0 	 T: device_sync(1.758947)
F:  6349824----T:  6380547 	 St: 0 Sz: 258048 	 Sm: 0 	 T: device_sync(20.744766)
F:  6383152----T:  6385757 	 St: 0 Sz: 4096 	 Sm: 0 	 T: device_sync(1.758947)
F:  6383152----T:  6443988 	 St: 0 Sz: 520192 	 Sm: 0 	 T: device_sync(41.077652)
F:  6446593----T:  6449198 	 St: 0 Sz: 4096 	 Sm: 0 	 T: device_sync(1.758947)
F:  6446593----T:  6567682 	 St: 0 Sz: 1044480 	 Sm: 0 	 T: device_sync(81.761650)
F:  6570287----T:  6572892 	 St: 0 Sz: 4096 	 Sm: 0 	 T: device_sync(1.758947)
F:  6570287----T:  6578527 	 St: 0 Sz: 61440 	 Sm: 0 	 T: device_sync(5.563808)
F:  6581132----T:  6583737 	 St: 0 Sz: 4096 	 Sm: 0 	 T: device_sync(1.758947)
F:  6581132----T:  6589372 	 St: 0 Sz: 61440 	 Sm: 0 	 T: device_sync(5.563808)
F:  6591977----T:  6594582 	 St: 0 Sz: 4096 	 Sm: 0 	 T: device_sync(1.758947)
F:  6591977----T:  6607672 	 St: 0 Sz: 126976 	 Sm: 0 	 T: device_sync(10.597569)
F:  6610277----T:  6612882 	 St: 0 Sz: 4096 	 Sm: 0 	 T: device_sync(1.758947)
F:  6610277----T:  6641000 	 St: 0 Sz: 258048 	 Sm: 0 	 T: device_sync(20.744766)
F:  6643605----T:  6646210 	 St: 0 Sz: 4096 	 Sm: 0 	 T: device_sync(1.758947)
F:  6643605----T:  6704441 	 St: 0 Sz: 520192 	 Sm: 0 	 T: device_sync(41.077652)
F:  6707046----T:  6709651 	 St: 0 Sz: 4096 	 Sm: 0 	 T: device_sync(1.758947)
F:  6707046----T:  6828135 	 St: 0 Sz: 1044480 	 Sm: 0 	 T: device_sync(81.761650)
Tot_prefetch_time: 0(cycle), 0.000000(us)
Tot_kernel_exec_time: 4900328(cycle), 3308.796875(us)
Tot_kernel_exec_time_and_fault_time: 9698768(cycle), 6548.796875(us)
Tot_memcpy_h2d_time: 3110372(cycle), 2100.183594(us)
Tot_memcpy_d2h_time: 0(cycle), 0.000000(us)
Tot_memcpy_time: 3110372(cycle), 2100.183594(us)
Tot_devicesync_time: 1041812(cycle), 703.451721(us)
Tot_writeback_time: 1757453(cycle), 1186.666382(us)
Tot_dma_time: 0(cycle), 0.000000(us)
Tot_memcpy_d2h_sync_wb_time: 2799265(cycle), 1890.118164(us)
GPGPU-Sim: *** exit detected ***
