

        *** GPGPU-Sim Simulator Version 3.2.2  [build gpgpu-sim_git-commit-192e696560217fbde0ca32c0b7f1cb04a8d61fd3_modified_1] ***


GPGPU-Sim PTX: simulation mode 0 (can change with PTX_SIM_MODE_FUNC environment variable:
               1=functional simulation only, 0=detailed performance simulator)
GPGPU-Sim: Configuration options:

-network_mode                           1 # Interconnection network mode
-inter_config_file   config_fermi_islip.icnt # Interconnection network config file
-gpgpu_ptx_use_cuobjdump                    1 # Use cuobjdump to extract ptx and sass from binaries
-gpgpu_experimental_lib_support                    0 # Try to extract code from cuda libraries [Broken because of unknown cudaGetExportTable]
-gpgpu_ptx_convert_to_ptxplus                    0 # Convert SASS (native ISA) to ptxplus and run ptxplus
-gpgpu_ptx_force_max_capability                   20 # Force maximum compute capability
-gpgpu_ptx_inst_debug_to_file                    0 # Dump executed instructions' debug information to file
-gpgpu_ptx_inst_debug_file       inst_debug.txt # Executed instructions' debug output file
-gpgpu_ptx_inst_debug_thread_uid                    1 # Thread UID for executed instructions' debug output
-gpgpu_simd_model                       1 # 1 = post-dominator
-gpgpu_shader_core_pipeline              2048:32 # shader core pipeline config, i.e., {<nthread>:<warpsize>}
-gpgpu_tex_cache:l1  16:128:24,L:R:m:N:L,F:128:4,128:2 # per-shader L1 texture cache  (READ-ONLY) config  {<nsets>:<bsize>:<assoc>,<rep>:<wr>:<alloc>:<wr_alloc>,<mshr>:<N>:<merge>,<mq>:<rf>}
-gpgpu_const_cache:l1 128:64:2,L:R:f:N:L,A:2:64,4 # per-shader L1 constant memory cache  (READ-ONLY) config  {<nsets>:<bsize>:<assoc>,<rep>:<wr>:<alloc>:<wr_alloc>,<mshr>:<N>:<merge>,<mq>} 
-gpgpu_cache:il1     8:128:4,L:R:f:N:L,A:2:48,4 # shader L1 instruction cache config  {<nsets>:<bsize>:<assoc>,<rep>:<wr>:<alloc>:<wr_alloc>,<mshr>:<N>:<merge>,<mq>} 
-gpgpu_cache:dl1     64:128:6,L:L:m:N:H,A:128:8,8 # per-shader L1 data cache config  {<nsets>:<bsize>:<assoc>,<rep>:<wr>:<alloc>:<wr_alloc>,<mshr>:<N>:<merge>,<mq> | none}
-gpgpu_cache:dl1PrefL1                 none # per-shader L1 data cache config  {<nsets>:<bsize>:<assoc>,<rep>:<wr>:<alloc>:<wr_alloc>,<mshr>:<N>:<merge>,<mq> | none}
-gpgpu_cache:dl1PrefShared                 none # per-shader L1 data cache config  {<nsets>:<bsize>:<assoc>,<rep>:<wr>:<alloc>:<wr_alloc>,<mshr>:<N>:<merge>,<mq> | none}
-gmem_skip_L1D                          1 # global memory access skip L1D cache (implements -Xptxas -dlcm=cg, default=no skip)
-gpgpu_perfect_mem                      0 # enable perfect memory mode (no cache miss)
-n_regfile_gating_group                    4 # group of lanes that should be read/written together)
-gpgpu_clock_gated_reg_file                    0 # enable clock gated reg file for power calculations
-gpgpu_clock_gated_lanes                    0 # enable clock gated lanes for power calculations
-gpgpu_shader_registers                65536 # Number of registers per shader core. Limits number of concurrent CTAs. (default 8192)
-gpgpu_shader_cta                      32 # Maximum number of concurrent CTAs in shader (default 8)
-gpgpu_num_cta_barriers                   16 # Maximum number of named barriers per CTA (default 16)
-gpgpu_n_clusters                      28 # number of processing clusters
-gpgpu_n_cores_per_cluster                    1 # number of simd cores per cluster
-gpgpu_n_cluster_ejection_buffer_size                    8 # number of packets in ejection buffer
-gpgpu_n_ldst_response_buffer_size                    2 # number of response packets in ld/st unit ejection buffer
-gpgpu_shmem_size                   16384 # Size of shared memory per shader core (default 16kB)
-gpgpu_shmem_size                   98304 # Size of shared memory per shader core (default 16kB)
-gpgpu_shmem_size_PrefL1                16384 # Size of shared memory per shader core (default 16kB)
-gpgpu_shmem_size_PrefShared                16384 # Size of shared memory per shader core (default 16kB)
-gpgpu_shmem_num_banks                   32 # Number of banks in the shared memory in each shader core (default 16)
-gpgpu_shmem_limited_broadcast                    0 # Limit shared memory to do one broadcast per cycle (default on)
-gpgpu_shmem_warp_parts                    1 # Number of portions a warp is divided into for shared memory bank conflict check 
-gpgpu_warpdistro_shader                   -1 # Specify which shader core to collect the warp size distribution from
-gpgpu_warp_issue_shader                    0 # Specify which shader core to collect the warp issue distribution from
-gpgpu_local_mem_map                    1 # Mapping from local memory space address to simulated GPU physical address space (default = enabled)
-gpgpu_num_reg_banks                   32 # Number of register banks (default = 8)
-gpgpu_reg_bank_use_warp_id                    0 # Use warp ID in mapping registers to banks (default = off)
-gpgpu_operand_collector_num_units_sp                   20 # number of collector units (default = 4)
-gpgpu_operand_collector_num_units_sfu                    4 # number of collector units (default = 4)
-gpgpu_operand_collector_num_units_mem                    8 # number of collector units (default = 2)
-gpgpu_operand_collector_num_units_gen                    0 # number of collector units (default = 0)
-gpgpu_operand_collector_num_in_ports_sp                    4 # number of collector unit in ports (default = 1)
-gpgpu_operand_collector_num_in_ports_sfu                    1 # number of collector unit in ports (default = 1)
-gpgpu_operand_collector_num_in_ports_mem                    1 # number of collector unit in ports (default = 1)
-gpgpu_operand_collector_num_in_ports_gen                    0 # number of collector unit in ports (default = 0)
-gpgpu_operand_collector_num_out_ports_sp                    4 # number of collector unit in ports (default = 1)
-gpgpu_operand_collector_num_out_ports_sfu                    1 # number of collector unit in ports (default = 1)
-gpgpu_operand_collector_num_out_ports_mem                    1 # number of collector unit in ports (default = 1)
-gpgpu_operand_collector_num_out_ports_gen                    0 # number of collector unit in ports (default = 0)
-gpgpu_coalesce_arch                   13 # Coalescing arch (default = 13, anything else is off for now)
-gpgpu_num_sched_per_core                    2 # Number of warp schedulers per core
-gpgpu_max_insn_issue_per_warp                    2 # Max number of instructions that can be issued per warp in one cycle by scheduler
-gpgpu_simt_core_sim_order                    1 # Select the simulation order of cores in a cluster (0=Fix, 1=Round-Robin)
-gpgpu_pipeline_widths        4,1,1,4,1,1,6 # Pipeline widths ID_OC_SP,ID_OC_SFU,ID_OC_MEM,OC_EX_SP,OC_EX_SFU,OC_EX_MEM,EX_WB
-gpgpu_num_sp_units                     4 # Number of SP units (default=1)
-gpgpu_num_sfu_units                    1 # Number of SF units (default=1)
-gpgpu_num_mem_units                    1 # Number if ldst units (default=1) WARNING: not hooked up to anything
-gpgpu_scheduler                      gto # Scheduler configuration: < lrr | gto | two_level_active > If two_level_active:<num_active_warps>:<inner_prioritization>:<outer_prioritization>For complete list of prioritization values see shader.h enum scheduler_prioritization_typeDefault: gto
-gpgpu_concurrent_kernel_sm                    0 # Support concurrent kernels on a SM (default = disabled)
-tlb_size                            4096 # Number of tlb entries per SM.
-gpgpu_dram_scheduler                    1 # 0 = fifo, 1 = FR-FCFS (defaul)
-gpgpu_dram_partition_queues              8:8:8:8 # i2$:$2d:d2$:$2i
-l2_ideal                               0 # Use a ideal L2 cache that always hit
-gpgpu_cache:dl2     64:128:16,L:B:m:W:L,A:1024:1024,4:0,32 # unified banked L2 data cache config  {<nsets>:<bsize>:<assoc>,<rep>:<wr>:<alloc>:<wr_alloc>,<mshr>:<N>:<merge>,<mq>}
-gpgpu_cache:dl2_texture_only                    0 # L2 cache used for texture only
-gpgpu_n_mem                           11 # number of memory modules (e.g. memory controllers) in gpu
-gpgpu_n_sub_partition_per_mchannel                    2 # number of memory subpartition in each memory module
-gpgpu_n_mem_per_ctrlr                    1 # number of memory chips per memory controller
-gpgpu_memlatency_stat                   14 # track and display latency statistics 0x2 enables MC, 0x4 enables queue logs
-gpgpu_frfcfs_dram_sched_queue_size                   64 # 0 = unlimited (default); # entries per chip
-gpgpu_dram_return_queue_size                  116 # 0 = unlimited (default); # entries per chip
-gpgpu_dram_buswidth                    4 # default = 4 bytes (8 bytes per cycle at DDR)
-gpgpu_dram_burst_length                    8 # Burst length of each DRAM request (default = 4 data bus cycle)
-dram_data_command_freq_ratio                    4 # Frequency ratio between DRAM data bus and command bus (default = 2 times, i.e. DDR)
-gpgpu_dram_timing_opt nbk=16:CCD=2:RRD=6:RCD=12:RAS=28:RP=12:RC=40: CL=12:WL=4:CDLR=5:WR=12:nbkgrp=1:CCDL=0:RTPL=0 # DRAM timing parameters = {nbk:tCCD:tRRD:tRCD:tRAS:tRP:tRC:CL:WL:tCDLR:tWR:nbkgrp:tCCDL:tRTPL}
-rop_latency                          120 # ROP queue latency (default 85)
-dram_latency                         100 # DRAM latency (default 30)
-gpgpu_mem_addr_mapping dramid@8;00000000.00000000.00000000.00000000.0000RRRR.RRRRRRRR.RBBBCCCC.BCCSSSSS # mapping memory address to dram model {dramid@<start bit>;<memory address map>}
-gpgpu_mem_addr_test                    0 # run sweep test to check address mapping for aliased address
-gpgpu_mem_address_mask                    1 # 0 = old addressing mask, 1 = new addressing mask, 2 = new add. mask + flipped bank sel and chip sel bits
-gpuwattch_xml_file  gpuwattch_geforcegtx1080ti.xml # GPUWattch XML file
-power_simulation_enabled                    1 # Turn on power simulator (1=On, 0=Off)
-power_per_cycle_dump                    0 # Dump detailed power output each cycle
-power_trace_enabled                    0 # produce a file for the power trace (1=On, 0=Off)
-power_trace_zlevel                     6 # Compression level of the power trace output log (0=no comp, 9=highest)
-steady_power_levels_enabled                    0 # produce a file for the steady power levels (1=On, 0=Off)
-steady_state_definition                  8:4 # allowed deviation:number of samples
-gpgpu_max_cycle                        0 # terminates gpu simulation early (0 = no limit)
-gpgpu_max_insn                         0 # terminates gpu simulation early (0 = no limit)
-gpgpu_max_cta                          0 # terminates gpu simulation early (0 = no limit)
-gpgpu_runtime_stat                   500 # display runtime statistics such as dram utilization {<freq>:<flag>}
-liveness_message_freq                    1 # Minimum number of seconds between simulation liveness messages (0 = always print)
-gpgpu_flush_l1_cache                    0 # Flush L1 cache at the end of each kernel call
-gpgpu_flush_l2_cache                    0 # Flush L2 cache at the end of each kernel call
-gpgpu_deadlock_detect                    0 # Stop the simulation at deadlock (1=on (default), 0=off)
-gpgpu_ptx_instruction_classification                    0 # if enabled will classify ptx instruction types per kernel (Max 255 kernels now)
-gpgpu_ptx_sim_mode                     0 # Select between Performance (default) or Functional simulation (1)
-gpgpu_clock_domains 1481.0:2962.0:1481.0:2750.0 # Clock Domain Frequencies in MhZ {<Core Clock>:<ICNT Clock>:<L2 Clock>:<DRAM Clock>}
-gpgpu_max_concurrent_kernel                    8 # maximum kernels that can run concurrently on GPU
-gpgpu_cflog_interval                    0 # Interval between each snapshot in control flow logger
-visualizer_enabled                     0 # Turn on visualizer output (1=On, 0=Off)
-visualizer_outputfile                 NULL # Specifies the output log file for visualizer
-visualizer_zlevel                      6 # Compression level of the visualizer output log (0=no comp, 9=highest)
-trace_enabled                          0 # Turn on traces
-trace_components                    none # comma seperated list of traces to enable. Complete list found in trace_streams.tup. Default none
-trace_sampling_core                    0 # The core which is printed using CORE_DPRINTF. Default 0
-trace_sampling_memory_partition                   -1 # The memory partition which is printed using MEMPART_DPRINTF. Default -1 (i.e. all)
-gddr_size                       2.2472MB # Size of GDDR in MB/GB.(GLOBAL_HEAP_START, GLOBAL_HEAP_START + gddr_size) would be used for unmanged memory, (GLOBAL_HEAP_START + gddr_size, GLOBAL_HEAP_START + gddr_size*2) would be used for managed memory. 
-page_table_walk_latency                  100 # Average page table walk latency (in core cycle).
-eviction_policy                      lru # Memory eviction policy: lru or random.
-percentage_of_free_page_buffer                    0 # Percentage of free page buffer to trigger the page eviction.
-page_size                            4KB # GDDR page size, only 4KB/2MB avaliable.
-pcie_bandwith                   16.0GB/s # PCI-e bandwith per direction, in GB/s.
-enable_nvlink                          1 # Enable nvlink 2.0, 150.0GB/s
-enable_rdma                            0 # Enable remote direct memory access
-migrate_threshold                     10 # Access counter threshold for migrating the page from cpu to gpu
-sim_prof_enable                        1 # Enable gpgpu-sim profiler
-hardware_prefetch                      1 # Enable gpgpu-sim hardware prefetcher
-page_fault_latency                 66645 # Average fault latency (in core cycle).
-enable_accurate_simulation                    0 # Enable page fault functional simulation.
-enable_ptx_file_line_stats                    1 # Turn on PTX source line statistic profiling. (1 = On)
-ptx_line_stats_filename gpgpu_inst_stats.txt # Output file for PTX source line statistics.
-gpgpu_kernel_launch_latency               222150 # Kernel launch latency in cycles. Default: 0
-gpgpu_cdp_enabled                      0 # Turn on CDP
-save_embedded_ptx                      0 # saves ptx files embedded in binary as <n>.ptx
-keep                                   0 # keep intermediate files created by GPGPU-Sim when interfacing with external programs
-gpgpu_ptx_save_converted_ptxplus                    0 # Saved converted ptxplus to a file
-ptx_opcode_latency_int         4,13,4,5,145 # Opcode latencies for integers <ADD,MAX,MUL,MAD,DIV>Default 1,1,19,25,145
-ptx_opcode_latency_fp          4,13,4,5,39 # Opcode latencies for single precision floating points <ADD,MAX,MUL,MAD,DIV>Default 1,1,1,1,30
-ptx_opcode_latency_dp         8,19,8,8,330 # Opcode latencies for double precision floating points <ADD,MAX,MUL,MAD,DIV>Default 8,8,8,8,335
-ptx_opcode_initiation_int            1,2,2,2,8 # Opcode initiation intervals for integers <ADD,MAX,MUL,MAD,DIV>Default 1,1,4,4,32
-ptx_opcode_initiation_fp            1,2,1,1,4 # Opcode initiation intervals for single precision floating points <ADD,MAX,MUL,MAD,DIV>Default 1,1,1,1,5
-ptx_opcode_initiation_dp          1,2,1,1,130 # Opcode initiation intervals for double precision floating points <ADD,MAX,MUL,MAD,DIV>Default 8,8,8,8,130
-cdp_latency         7200,8000,100,12000,1600 # CDP API latency <cudaStreamCreateWithFlags, cudaGetParameterBufferV2_init_perWarp, cudaGetParameterBufferV2_perKernel, cudaLaunchDeviceV2_init_perWarp, cudaLaunchDevicV2_perKernel>Default 7200,8000,100,12000,1600
DRAM Timing Options:
nbk                                    16 # number of banks
CCD                                     2 # column to column delay
RRD                                     6 # minimal delay between activation of rows in different banks
RCD                                    12 # row to column delay
RAS                                    28 # time needed to activate row
RP                                     12 # time needed to precharge (deactivate) row
RC                                     40 # row cycle time
CDLR                                    5 # switching from write to read (changes tWTR)
WR                                     12 # last data-in to row precharge
CL                                     12 # CAS latency
WL                                      4 # Write latency
nbkgrp                                  1 # number of bank groups
CCDL                                    0 # column to column delay between accesses to different bank groups
RTPL                                    0 # read to precharge delay between accesses to different bank groups
Total number of memory sub partition = 22
addr_dec_mask[CHIP]  = 0000000000000000 	high:64 low:0
addr_dec_mask[BK]    = 0000000000007080 	high:15 low:7
addr_dec_mask[ROW]   = 000000000fff8000 	high:28 low:15
addr_dec_mask[COL]   = 0000000000000f7f 	high:12 low:0
addr_dec_mask[BURST] = 000000000000001f 	high:5 low:0
sub_partition_id_mask = 0000000000000080
GPGPU-Sim uArch: clock freqs: 1481000000.000000:2962000000.000000:1481000000.000000:2750000000.000000
GPGPU-Sim uArch: clock periods: 0.00000000067521944632:0.00000000033760972316:0.00000000067521944632:0.00000000036363636364
*** Initializing Memory Statistics ***
GPGPU-Sim uArch: interconnect node map (shaderID+MemID to icntID)
GPGPU-Sim uArch: Memory nodes ID start from index: 28
GPGPU-Sim uArch:    0   1   2   3   4   5   6
GPGPU-Sim uArch:    7   8   9  10  11  12  13
GPGPU-Sim uArch:   14  15  16  17  18  19  20
GPGPU-Sim uArch:   21  22  23  24  25  26  27
GPGPU-Sim uArch:   28  29  30  31  32  33  34
GPGPU-Sim uArch:   35  36  37  38  39  40  41
GPGPU-Sim uArch:   42  43  44  45  46  47  48
GPGPU-Sim uArch:   49
GPGPU-Sim uArch: interconnect node reverse map (icntID to shaderID+MemID)
GPGPU-Sim uArch: Memory nodes start from ID: 28
GPGPU-Sim uArch:    0   1   2   3   4   5   6
GPGPU-Sim uArch:    7   8   9  10  11  12  13
GPGPU-Sim uArch:   14  15  16  17  18  19  20
GPGPU-Sim uArch:   21  22  23  24  25  26  27
GPGPU-Sim uArch:   28  29  30  31  32  33  34
GPGPU-Sim uArch:   35  36  37  38  39  40  41
GPGPU-Sim uArch:   42  43  44  45  46  47  48
GPGPU-Sim uArch:   49
7580e047cf8682b6cd44c6040e30c65d  /home/gpuser/Documents/gpgpu-sim_UVM_rdma/benchmarks/Managed/backprop/backprop
GPGPU-Sim uArch: performance model initialization complete.
GPGPU-Sim PTX: __cudaRegisterFatBinary, fat_cubin_handle = 1, filename=default
self exe links to: /home/gpuser/Documents/gpgpu-sim_UVM_rdma/benchmarks/Managed/backprop/backprop
Running md5sum using "md5sum /home/gpuser/Documents/gpgpu-sim_UVM_rdma/benchmarks/Managed/backprop/backprop "
Parsing file _cuobjdump_complete_output_HGL6Bt
######### cuobjdump parser ########
## Adding new section ELF
Adding arch: sm_20
Adding identifier: default
## Adding new section ELF
Adding arch: sm_20
Adding identifier: default
## Adding new section PTX
Adding ptx filename: _cuobjdump_1.ptx
Adding arch: sm_20
Adding identifier: default
Done parsing!!!
GPGPU-Sim PTX: __cudaRegisterFunction _Z24bpnn_adjust_weights_cudaPfiS_iS_S_ : hostFun 0x0x402d5b, fat_cubin_handle = 1
GPGPU-Sim PTX: allocating shared region for "_Z22bpnn_layerforward_CUDAPfS_S_S_ii$__cuda_local_var_17900_34_non_const_input_node" from 0x0 to 0x40 (shared memory space)
GPGPU-Sim PTX: allocating shared region for "_Z22bpnn_layerforward_CUDAPfS_S_S_ii$__cuda_local_var_17901_34_non_const_weight_matrix" from 0x80 to 0x480 (shared memory space)
GPGPU-Sim PTX: instruction assembly for function '_Z22bpnn_layerforward_CUDAPfS_S_S_ii'...   done.
GPGPU-Sim PTX: finding reconvergence points for '_Z22bpnn_layerforward_CUDAPfS_S_S_ii'...
GPGPU-Sim PTX: Finding dominators for '_Z22bpnn_layerforward_CUDAPfS_S_S_ii'...
GPGPU-Sim PTX: Finding immediate dominators for '_Z22bpnn_layerforward_CUDAPfS_S_S_ii'...
GPGPU-Sim PTX: Finding postdominators for '_Z22bpnn_layerforward_CUDAPfS_S_S_ii'...
GPGPU-Sim PTX: Finding immediate postdominators for '_Z22bpnn_layerforward_CUDAPfS_S_S_ii'...
GPGPU-Sim PTX: pre-decoding instructions for '_Z22bpnn_layerforward_CUDAPfS_S_S_ii'...
GPGPU-Sim PTX: reconvergence points for _Z22bpnn_layerforward_CUDAPfS_S_S_ii...
GPGPU-Sim PTX:  1 (potential) branch divergence @  PC=0x068 (_1.ptx:47) @%p2 bra BB0_2;
GPGPU-Sim PTX:    immediate post dominator      @  PC=0x0a0 (_1.ptx:57) cvta.to.global.u64 %rd3, %rd8;
GPGPU-Sim PTX:  2 (potential) branch divergence @  PC=0x168 (_1.ptx:82) @%p3 bra BB0_7;
GPGPU-Sim PTX:    immediate post dominator      @  PC=0x250 (_1.ptx:119) setp.eq.s32%p1, %r3, 0;
GPGPU-Sim PTX:  3 (potential) branch divergence @  PC=0x1c8 (_1.ptx:97) @%p4 bra BB0_6;
GPGPU-Sim PTX:    immediate post dominator      @  PC=0x228 (_1.ptx:112) bar.sync 0;
GPGPU-Sim PTX:  4 (potential) branch divergence @  PC=0x248 (_1.ptx:116) @%p5 bra BB0_4;
GPGPU-Sim PTX:    immediate post dominator      @  PC=0x250 (_1.ptx:119) setp.eq.s32%p1, %r3, 0;
GPGPU-Sim PTX:  5 (potential) branch divergence @  PC=0x270 (_1.ptx:123) @!%p1 bra BB0_9;
GPGPU-Sim PTX:    immediate post dominator      @  PC=0x2c8 (_1.ptx:138) ret;
GPGPU-Sim PTX:  6 (potential) branch divergence @  PC=0x278 (_1.ptx:124) bra.uni BB0_8;
GPGPU-Sim PTX:    immediate post dominator      @  PC=0x280 (_1.ptx:127) cvt.u32.u64%r20, %rd1;
GPGPU-Sim PTX: ... end of reconvergence points for _Z22bpnn_layerforward_CUDAPfS_S_S_ii
GPGPU-Sim PTX: ... done pre-decoding instructions for '_Z22bpnn_layerforward_CUDAPfS_S_S_ii'.
GPGPU-Sim PTX: instruction assembly for function '_Z24bpnn_adjust_weights_cudaPfiS_iS_S_'...   done.
GPGPU-Sim PTX: finding reconvergence points for '_Z24bpnn_adjust_weights_cudaPfiS_iS_S_'...
GPGPU-Sim PTX: Finding dominators for '_Z24bpnn_adjust_weights_cudaPfiS_iS_S_'...
GPGPU-Sim PTX: Finding immediate dominators for '_Z24bpnn_adjust_weights_cudaPfiS_iS_S_'...
GPGPU-Sim PTX: Finding postdominators for '_Z24bpnn_adjust_weights_cudaPfiS_iS_S_'...
GPGPU-Sim PTX: Finding immediate postdominators for '_Z24bpnn_adjust_weights_cudaPfiS_iS_S_'...
GPGPU-Sim PTX: pre-decoding instructions for '_Z24bpnn_adjust_weights_cudaPfiS_iS_S_'...
GPGPU-Sim PTX: reconvergence points for _Z24bpnn_adjust_weights_cudaPfiS_iS_S_...
GPGPU-Sim PTX:  1 (potential) branch divergence @  PC=0x470 (_1.ptx:210) @%p1 bra BB1_2;
GPGPU-Sim PTX:    immediate post dominator      @  PC=0x530 (_1.ptx:237) ret;
GPGPU-Sim PTX: ... end of reconvergence points for _Z24bpnn_adjust_weights_cudaPfiS_iS_S_
GPGPU-Sim PTX: ... done pre-decoding instructions for '_Z24bpnn_adjust_weights_cudaPfiS_iS_S_'.
GPGPU-Sim PTX: finished parsing EMBEDDED .ptx file _1.ptx
Adding _cuobjdump_1.ptx with cubin handle 1
GPGPU-Sim PTX: extracting embedded .ptx to temporary file "_ptx_lFM5tv"
Running: cat _ptx_lFM5tv | sed 's/.version 1.5/.version 1.4/' | sed 's/, texmode_independent//' | sed 's/\(\.extern \.const\[1\] .b8 \w\+\)\[\]/\1\[1\]/' | sed 's/const\[.\]/const\[0\]/g' > _ptx2_VAA5lx
GPGPU-Sim PTX: generating ptxinfo using "$CUDA_INSTALL_PATH/bin/ptxas --gpu-name=sm_20 -v _ptx2_VAA5lx --output-file  /dev/null 2> _ptx_lFM5tvinfo"
GPGPU-Sim PTX: Kernel '_Z24bpnn_adjust_weights_cudaPfiS_iS_S_' : regs=22, lmem=0, smem=0, cmem=80
GPGPU-Sim PTX: Kernel '_Z22bpnn_layerforward_CUDAPfS_S_S_ii' : regs=11, lmem=0, smem=1088, cmem=72
GPGPU-Sim PTX: removing ptxinfo using "rm -f _ptx_lFM5tv _ptx2_VAA5lx _ptx_lFM5tvinfo"
GPGPU-Sim PTX: loading globals with explicit initializers... 
GPGPU-Sim PTX: finished loading globals (0 bytes total).
GPGPU-Sim PTX: loading constants with explicit initializers...  done.
GPGPU-Sim PTX: __cudaRegisterFunction _Z22bpnn_layerforward_CUDAPfS_S_S_ii : hostFun 0x0x402c0a, fat_cubin_handle = 1
Random number generator seed: 7
cudaMallocManaged called
cudaMallocManaged called
cudaMallocManaged called
cudaMallocManaged called
cudaMallocManaged called
cudaMallocManaged called
cudaMallocManaged called
cudaMallocManaged called
cudaMallocManaged called
cudaMallocManaged called
cudaMallocManaged called
Input layer size : 18000
Starting training kernel
Performing GPU computation

GPGPU-Sim PTX: cudaLaunch for 0x0x402c0a (mode=performance simulation) on stream 0
GPGPU-Sim PTX: pushing kernel '_Z22bpnn_layerforward_CUDAPfS_S_S_ii' to stream 0, gridDim= (1,1125,1) blockDim = (16,16,1) 
GPGPU-Sim uArch: Shader 1 bind to kernel 1 '_Z22bpnn_layerforward_CUDAPfS_S_S_ii'
GPGPU-Sim uArch: CTA/core = 8, limited by: threads
GPGPU-Sim uArch: Shader 2 bind to kernel 1 '_Z22bpnn_layerforward_CUDAPfS_S_S_ii'
GPGPU-Sim uArch: Shader 3 bind to kernel 1 '_Z22bpnn_layerforward_CUDAPfS_S_S_ii'
GPGPU-Sim uArch: Shader 4 bind to kernel 1 '_Z22bpnn_layerforward_CUDAPfS_S_S_ii'
GPGPU-Sim uArch: Shader 5 bind to kernel 1 '_Z22bpnn_layerforward_CUDAPfS_S_S_ii'
GPGPU-Sim uArch: Shader 6 bind to kernel 1 '_Z22bpnn_layerforward_CUDAPfS_S_S_ii'
GPGPU-Sim uArch: Shader 7 bind to kernel 1 '_Z22bpnn_layerforward_CUDAPfS_S_S_ii'
GPGPU-Sim uArch: Shader 8 bind to kernel 1 '_Z22bpnn_layerforward_CUDAPfS_S_S_ii'
GPGPU-Sim uArch: Shader 9 bind to kernel 1 '_Z22bpnn_layerforward_CUDAPfS_S_S_ii'
GPGPU-Sim uArch: Shader 10 bind to kernel 1 '_Z22bpnn_layerforward_CUDAPfS_S_S_ii'
GPGPU-Sim uArch: Shader 11 bind to kernel 1 '_Z22bpnn_layerforward_CUDAPfS_S_S_ii'
GPGPU-Sim uArch: Shader 12 bind to kernel 1 '_Z22bpnn_layerforward_CUDAPfS_S_S_ii'
GPGPU-Sim uArch: Shader 13 bind to kernel 1 '_Z22bpnn_layerforward_CUDAPfS_S_S_ii'
GPGPU-Sim uArch: Shader 14 bind to kernel 1 '_Z22bpnn_layerforward_CUDAPfS_S_S_ii'
GPGPU-Sim uArch: Shader 15 bind to kernel 1 '_Z22bpnn_layerforward_CUDAPfS_S_S_ii'
GPGPU-Sim uArch: Shader 16 bind to kernel 1 '_Z22bpnn_layerforward_CUDAPfS_S_S_ii'
GPGPU-Sim uArch: Shader 17 bind to kernel 1 '_Z22bpnn_layerforward_CUDAPfS_S_S_ii'
GPGPU-Sim uArch: Shader 18 bind to kernel 1 '_Z22bpnn_layerforward_CUDAPfS_S_S_ii'
GPGPU-Sim uArch: Shader 19 bind to kernel 1 '_Z22bpnn_layerforward_CUDAPfS_S_S_ii'
GPGPU-Sim uArch: Shader 20 bind to kernel 1 '_Z22bpnn_layerforward_CUDAPfS_S_S_ii'
GPGPU-Sim uArch: Shader 21 bind to kernel 1 '_Z22bpnn_layerforward_CUDAPfS_S_S_ii'
GPGPU-Sim uArch: Shader 22 bind to kernel 1 '_Z22bpnn_layerforward_CUDAPfS_S_S_ii'
GPGPU-Sim uArch: Shader 23 bind to kernel 1 '_Z22bpnn_layerforward_CUDAPfS_S_S_ii'
GPGPU-Sim uArch: Shader 24 bind to kernel 1 '_Z22bpnn_layerforward_CUDAPfS_S_S_ii'
GPGPU-Sim uArch: Shader 25 bind to kernel 1 '_Z22bpnn_layerforward_CUDAPfS_S_S_ii'
GPGPU-Sim uArch: Shader 26 bind to kernel 1 '_Z22bpnn_layerforward_CUDAPfS_S_S_ii'
GPGPU-Sim uArch: Shader 27 bind to kernel 1 '_Z22bpnn_layerforward_CUDAPfS_S_S_ii'
GPGPU-Sim uArch: Shader 0 bind to kernel 1 '_Z22bpnn_layerforward_CUDAPfS_S_S_ii'
Destroy streams for kernel 1: size 0
kernel_name = _Z22bpnn_layerforward_CUDAPfS_S_S_ii 
kernel_launch_uid = 1 
gpu_sim_cycle = 46227
gpu_sim_insn = 30888000
gpu_ipc =     668.1809
gpu_tot_sim_cycle = 268377
gpu_tot_sim_insn = 30888000
gpu_tot_ipc =     115.0918
gpu_tot_issued_cta = 1125
max_total_param_size = 0
gpu_stall_dramfull = 203
gpu_stall_icnt2sh    = 65069
partiton_reqs_in_parallel = 1016791
partiton_reqs_in_parallel_total    = 0
partiton_level_parallism =      21.9956
partiton_level_parallism_total  =       3.7887
partiton_reqs_in_parallel_util = 1016791
partiton_reqs_in_parallel_util_total    = 0
gpu_sim_cycle_parition_util = 46227
gpu_tot_sim_cycle_parition_util    = 0
partiton_level_parallism_util =      21.9956
partiton_level_parallism_util_total  =      21.9956
partiton_replys_in_parallel = 54758
partiton_replys_in_parallel_total    = 0
L2_BW  =     112.2760 GB/Sec
L2_BW_total  =      19.3391 GB/Sec
gpu_total_sim_rate=299883

========= Core cache stats =========
L1I_cache:
	L1I_total_cache_accesses = 642375
	L1I_total_cache_misses = 3588
	L1I_total_cache_miss_rate = 0.0056
	L1I_total_cache_pending_hits = 0
	L1I_total_cache_reservation_fails = 6846
L1D_cache:
	L1D_cache_core[0]: Access = 0, Miss = 0, Miss_rate = -nan, Pending_hits = 0, Reservation_fails = 0
	L1D_cache_core[1]: Access = 0, Miss = 0, Miss_rate = -nan, Pending_hits = 0, Reservation_fails = 0
	L1D_cache_core[2]: Access = 0, Miss = 0, Miss_rate = -nan, Pending_hits = 0, Reservation_fails = 0
	L1D_cache_core[3]: Access = 0, Miss = 0, Miss_rate = -nan, Pending_hits = 0, Reservation_fails = 0
	L1D_cache_core[4]: Access = 0, Miss = 0, Miss_rate = -nan, Pending_hits = 0, Reservation_fails = 0
	L1D_cache_core[5]: Access = 0, Miss = 0, Miss_rate = -nan, Pending_hits = 0, Reservation_fails = 0
	L1D_cache_core[6]: Access = 0, Miss = 0, Miss_rate = -nan, Pending_hits = 0, Reservation_fails = 0
	L1D_cache_core[7]: Access = 0, Miss = 0, Miss_rate = -nan, Pending_hits = 0, Reservation_fails = 0
	L1D_cache_core[8]: Access = 0, Miss = 0, Miss_rate = -nan, Pending_hits = 0, Reservation_fails = 0
	L1D_cache_core[9]: Access = 0, Miss = 0, Miss_rate = -nan, Pending_hits = 0, Reservation_fails = 0
	L1D_cache_core[10]: Access = 0, Miss = 0, Miss_rate = -nan, Pending_hits = 0, Reservation_fails = 0
	L1D_cache_core[11]: Access = 0, Miss = 0, Miss_rate = -nan, Pending_hits = 0, Reservation_fails = 0
	L1D_cache_core[12]: Access = 0, Miss = 0, Miss_rate = -nan, Pending_hits = 0, Reservation_fails = 0
	L1D_cache_core[13]: Access = 0, Miss = 0, Miss_rate = -nan, Pending_hits = 0, Reservation_fails = 0
	L1D_cache_core[14]: Access = 0, Miss = 0, Miss_rate = -nan, Pending_hits = 0, Reservation_fails = 0
	L1D_cache_core[15]: Access = 0, Miss = 0, Miss_rate = -nan, Pending_hits = 0, Reservation_fails = 0
	L1D_cache_core[16]: Access = 0, Miss = 0, Miss_rate = -nan, Pending_hits = 0, Reservation_fails = 0
	L1D_cache_core[17]: Access = 0, Miss = 0, Miss_rate = -nan, Pending_hits = 0, Reservation_fails = 0
	L1D_cache_core[18]: Access = 0, Miss = 0, Miss_rate = -nan, Pending_hits = 0, Reservation_fails = 0
	L1D_cache_core[19]: Access = 0, Miss = 0, Miss_rate = -nan, Pending_hits = 0, Reservation_fails = 0
	L1D_cache_core[20]: Access = 0, Miss = 0, Miss_rate = -nan, Pending_hits = 0, Reservation_fails = 0
	L1D_cache_core[21]: Access = 0, Miss = 0, Miss_rate = -nan, Pending_hits = 0, Reservation_fails = 0
	L1D_cache_core[22]: Access = 0, Miss = 0, Miss_rate = -nan, Pending_hits = 0, Reservation_fails = 0
	L1D_cache_core[23]: Access = 0, Miss = 0, Miss_rate = -nan, Pending_hits = 0, Reservation_fails = 0
	L1D_cache_core[24]: Access = 0, Miss = 0, Miss_rate = -nan, Pending_hits = 0, Reservation_fails = 0
	L1D_cache_core[25]: Access = 0, Miss = 0, Miss_rate = -nan, Pending_hits = 0, Reservation_fails = 0
	L1D_cache_core[26]: Access = 0, Miss = 0, Miss_rate = -nan, Pending_hits = 0, Reservation_fails = 0
	L1D_cache_core[27]: Access = 0, Miss = 0, Miss_rate = -nan, Pending_hits = 0, Reservation_fails = 0
	L1D_total_cache_accesses = 0
	L1D_total_cache_misses = 0
	L1D_total_cache_pending_hits = 0
	L1D_total_cache_reservation_fails = 0
	L1D_cache_data_port_util = 0.000
	L1D_cache_fill_port_util = 0.000
L1C_cache:
	L1C_total_cache_accesses = 36000
	L1C_total_cache_misses = 1792
	L1C_total_cache_miss_rate = 0.0498
	L1C_total_cache_pending_hits = 0
	L1C_total_cache_reservation_fails = 4886
L1T_cache:
	L1T_total_cache_accesses = 0
	L1T_total_cache_misses = 0
	L1T_total_cache_pending_hits = 0
	L1T_total_cache_reservation_fails = 0

Total_core_cache_stats:
	Total_core_cache_stats_breakdown[GLOBAL_ACC_R][HIT] = 0
	Total_core_cache_stats_breakdown[GLOBAL_ACC_R][HIT_RESERVED] = 0
	Total_core_cache_stats_breakdown[GLOBAL_ACC_R][MISS] = 0
	Total_core_cache_stats_breakdown[GLOBAL_ACC_R][RESERVATION_FAIL] = 0
	Total_core_cache_stats_breakdown[LOCAL_ACC_R][HIT] = 0
	Total_core_cache_stats_breakdown[LOCAL_ACC_R][HIT_RESERVED] = 0
	Total_core_cache_stats_breakdown[LOCAL_ACC_R][MISS] = 0
	Total_core_cache_stats_breakdown[LOCAL_ACC_R][RESERVATION_FAIL] = 0
	Total_core_cache_stats_breakdown[CONST_ACC_R][HIT] = 34208
	Total_core_cache_stats_breakdown[CONST_ACC_R][HIT_RESERVED] = 0
	Total_core_cache_stats_breakdown[CONST_ACC_R][MISS] = 1792
	Total_core_cache_stats_breakdown[CONST_ACC_R][RESERVATION_FAIL] = 4886
	Total_core_cache_stats_breakdown[TEXTURE_ACC_R][HIT] = 0
	Total_core_cache_stats_breakdown[TEXTURE_ACC_R][HIT_RESERVED] = 0
	Total_core_cache_stats_breakdown[TEXTURE_ACC_R][MISS] = 0
	Total_core_cache_stats_breakdown[TEXTURE_ACC_R][RESERVATION_FAIL] = 0
	Total_core_cache_stats_breakdown[GLOBAL_ACC_W][HIT] = 0
	Total_core_cache_stats_breakdown[GLOBAL_ACC_W][HIT_RESERVED] = 0
	Total_core_cache_stats_breakdown[GLOBAL_ACC_W][MISS] = 0
	Total_core_cache_stats_breakdown[GLOBAL_ACC_W][RESERVATION_FAIL] = 0
	Total_core_cache_stats_breakdown[LOCAL_ACC_W][HIT] = 0
	Total_core_cache_stats_breakdown[LOCAL_ACC_W][HIT_RESERVED] = 0
	Total_core_cache_stats_breakdown[LOCAL_ACC_W][MISS] = 0
	Total_core_cache_stats_breakdown[LOCAL_ACC_W][RESERVATION_FAIL] = 0
	Total_core_cache_stats_breakdown[L1_WRBK_ACC][HIT] = 0
	Total_core_cache_stats_breakdown[L1_WRBK_ACC][HIT_RESERVED] = 0
	Total_core_cache_stats_breakdown[L1_WRBK_ACC][MISS] = 0
	Total_core_cache_stats_breakdown[L1_WRBK_ACC][RESERVATION_FAIL] = 0
	Total_core_cache_stats_breakdown[L2_WRBK_ACC][HIT] = 0
	Total_core_cache_stats_breakdown[L2_WRBK_ACC][HIT_RESERVED] = 0
	Total_core_cache_stats_breakdown[L2_WRBK_ACC][MISS] = 0
	Total_core_cache_stats_breakdown[L2_WRBK_ACC][RESERVATION_FAIL] = 0
	Total_core_cache_stats_breakdown[INST_ACC_R][HIT] = 638787
	Total_core_cache_stats_breakdown[INST_ACC_R][HIT_RESERVED] = 0
	Total_core_cache_stats_breakdown[INST_ACC_R][MISS] = 3588
	Total_core_cache_stats_breakdown[INST_ACC_R][RESERVATION_FAIL] = 6846
	Total_core_cache_stats_breakdown[L1_WR_ALLOC_R][HIT] = 0
	Total_core_cache_stats_breakdown[L1_WR_ALLOC_R][HIT_RESERVED] = 0
	Total_core_cache_stats_breakdown[L1_WR_ALLOC_R][MISS] = 0
	Total_core_cache_stats_breakdown[L1_WR_ALLOC_R][RESERVATION_FAIL] = 0
	Total_core_cache_stats_breakdown[L2_WR_ALLOC_R][HIT] = 0
	Total_core_cache_stats_breakdown[L2_WR_ALLOC_R][HIT_RESERVED] = 0
	Total_core_cache_stats_breakdown[L2_WR_ALLOC_R][MISS] = 0
	Total_core_cache_stats_breakdown[L2_WR_ALLOC_R][RESERVATION_FAIL] = 0
	Total_core_cache_stats_breakdown[CONST_ACC_R][TOTAL_ACCESS] = 36000
	Total_core_cache_stats_breakdown[INST_ACC_R][TOTAL_ACCESS] = 642375
Shader 0 warp_id issue ditsribution:
warp_id:
0, 1, 2, 3, 4, 5, 6, 7, 8, 9, 10, 11, 12, 13, 14, 15, 16, 17, 18, 19, 20, 21, 22, 23, 24, 25, 26, 27, 28, 29, 30, 31, 32, 33, 34, 35, 36, 37, 38, 39, 40, 41, 42, 43, 44, 45, 46, 47, 48, 49, 50, 51, 52, 53, 54, 55, 56, 57, 58, 59, 60, 61, 62, 63, 
distro:
902, 716, 777, 713, 842, 712, 785, 721, 901, 713, 775, 714, 841, 715, 783, 713, 902, 715, 777, 712, 843, 713, 785, 721, 902, 712, 775, 711, 840, 711, 778, 716, 903, 712, 778, 711, 844, 710, 783, 722, 901, 714, 776, 715, 840, 714, 783, 718, 901, 713, 777, 715, 841, 716, 780, 715, 722, 569, 620, 569, 673, 569, 627, 577, 
gpgpu_n_tot_thrd_icount = 39060000
gpgpu_n_tot_w_icount = 1220625
gpgpu_n_stall_shd_mem = 46690
gpgpu_n_mem_read_local = 0
gpgpu_n_mem_write_local = 0
gpgpu_n_mem_read_global = 27562
gpgpu_n_mem_write_global = 27000
gpgpu_n_mem_texture = 0
gpgpu_n_mem_const = 28
gpgpu_n_load_insn  = 306000
gpgpu_n_store_insn = 306000
gpgpu_n_shmem_insn = 2286000
gpgpu_n_tex_insn = 0
gpgpu_n_const_mem_insn = 0
gpgpu_n_param_mem_insn = 1152000
gpgpu_n_shmem_bkconflict = 0
gpgpu_n_cache_bkconflict = 0
gpgpu_n_intrawarp_mshr_merge = 0
gpgpu_n_cmem_portconflict = 4886
gpgpu_stall_shd_mem[c_mem][bk_conf] = 4886
gpgpu_stall_shd_mem[c_mem][mshr_rc] = 0
gpgpu_stall_shd_mem[c_mem][icnt_rc] = 0
gpgpu_stall_shd_mem[c_mem][data_port_stall] = 0
gpgpu_stall_shd_mem[t_mem][mshr_rc] = 0
gpgpu_stall_shd_mem[t_mem][icnt_rc] = 0
gpgpu_stall_shd_mem[t_mem][data_port_stall] = 0
gpgpu_stall_shd_mem[s_mem][bk_conf] = 0
gpgpu_stall_shd_mem[gl_mem][bk_conf] = 0
gpgpu_stall_shd_mem[gl_mem][coal_stall] = 36466
gpgpu_stall_shd_mem[gl_mem][data_port_stall] = 0
gpgpu_stall_shd_mem[g_mem_ld][mshr_rc] = 0
gpgpu_stall_shd_mem[g_mem_ld][icnt_rc] = 5338
gpgpu_stall_shd_mem[g_mem_ld][wb_icnt_rc] = 0
gpgpu_stall_shd_mem[g_mem_ld][wb_rsrv_fail] = 0
gpgpu_stall_shd_mem[g_mem_st][mshr_rc] = 0
gpgpu_stall_shd_mem[g_mem_st][icnt_rc] = 0
gpgpu_stall_shd_mem[g_mem_st][wb_icnt_rc] = 0
gpgpu_stall_shd_mem[g_mem_st][wb_rsrv_fail] = 0
gpgpu_stall_shd_mem[l_mem_ld][mshr_rc] = 0
gpgpu_stall_shd_mem[l_mem_ld][icnt_rc] = 0
gpgpu_stall_shd_mem[l_mem_ld][wb_icnt_rc] = 0
gpgpu_stall_shd_mem[l_mem_ld][wb_rsrv_fail] = 0
gpgpu_stall_shd_mem[l_mem_st][mshr_rc] = 0
gpgpu_stall_shd_mem[l_mem_st][icnt_rc] = 0
gpgpu_stall_shd_mem[l_mem_ld][wb_icnt_rc] = 0
gpgpu_stall_shd_mem[l_mem_ld][wb_rsrv_fail] = 0
gpu_reg_bank_conflict_stalls = 0
Warp Occupancy Distribution:
Stall:55673	W0_Idle:59281	W0_Scoreboard:1394755	W1:0	W2:144000	W3:0	W4:0	W5:0	W6:0	W7:0	W8:0	W9:0	W10:0	W11:0	W12:0	W13:0	W14:0	W15:0	W16:185625	W17:0	W18:0	W19:0	W20:0	W21:0	W22:0	W23:0	W24:0	W25:0	W26:0	W27:0	W28:0	W29:0	W30:0	W31:0	W32:891000
traffic_breakdown_coretomem[CONST_ACC_R] = 224 {8:28,}
traffic_breakdown_coretomem[GLOBAL_ACC_R] = 220496 {8:27562,}
traffic_breakdown_coretomem[GLOBAL_ACC_W] = 2087968 {40:13501,72:4499,136:9000,}
traffic_breakdown_coretomem[INST_ACC_R] = 1344 {8:168,}
traffic_breakdown_memtocore[CONST_ACC_R] = 2016 {72:28,}
traffic_breakdown_memtocore[GLOBAL_ACC_R] = 2200496 {40:12375,72:5624,136:9563,}
traffic_breakdown_memtocore[GLOBAL_ACC_W] = 216000 {8:27000,}
traffic_breakdown_memtocore[INST_ACC_R] = 22848 {136:168,}
maxmrqlatency = 457 
maxdqlatency = 0 
maxmflatency = 13276 
averagemflatency = 1367 
max_icnt2mem_latency = 13035 
max_icnt2sh_latency = 268376 
mrq_lat_table:6233 	421 	876 	2422 	1721 	1192 	1719 	1342 	1584 	0 	0 	0 	0 	0 	0 	0 	0 	0 	0 	0 	0 	0 	0 	0 	0 	0 	0 	0 	0 	0 	0 	0 	
dq_lat_table:0 	0 	0 	0 	0 	0 	0 	0 	0 	0 	0 	0 	0 	0 	0 	0 	0 	0 	0 	0 	0 	0 	0 	0 	0 	0 	0 	0 	0 	0 	0 	0 	
mf_lat_table:0 	0 	0 	0 	0 	0 	0 	26408 	12560 	867 	4435 	5053 	3579 	1688 	0 	0 	0 	0 	0 	0 	0 	0 	0 	0 	0 	0 	0 	0 	0 	0 	0 	0 	
icnt2mem_lat_table:0 	0 	8716 	16387 	1266 	3 	12018 	762 	877 	1053 	5127 	3442 	3419 	1688 	0 	0 	0 	0 	0 	0 	0 	0 	0 	0 	
icnt2sh_lat_table:0 	0 	5985 	13091 	7557 	930 	27 	0 	0 	0 	0 	0 	0 	0 	0 	0 	0 	23304 	3696 	0 	0 	0 	0 	0 	
mf_lat_pw_table:0 	0 	0 	0 	0 	0 	0 	33 	9 	4 	5 	5 	3 	2 	0 	0 	0 	0 	0 	0 	0 	0 	0 	0 	0 	0 	0 	0 	0 	0 	0 	0 	
maximum concurrent accesses to same row:
dram[0]:        16        16        16        16        16        16        16        16        16        16        85       102        87        87        16        16 
dram[1]:        16        16        16        16        16        16        16        16        16        16        85        78        97        91        16        16 
dram[2]:        16        16        16        16        16        16        16        16        16        16        85        86       120        95        16        16 
dram[3]:        16        16        16        16        16        16        16        16        16        16        85        78       111        87        16        16 
dram[4]:        16        16        16        16        16        16        16        16        16        16        85        77       100        95        16        16 
dram[5]:        16        16        16        16        16        16        16        16        16        16       102        86        96        87        16        16 
dram[6]:        16        16        16        16        16        16        16        16        16        16       102        86        70       103        16        16 
dram[7]:        16        16        16        16        16        16        16        16        16        16       102        78        78        95        16        16 
dram[8]:        16        16        16        16        16        16        16        16        16        16        94       102        95        91        16        16 
dram[9]:        16        16        16        16        16        16        16        16        16        16        97        94       111        78        16        16 
dram[10]:        16        16        16        16        16        16        16        16        16        16       102        86       103        95        16        16 
maximum service time to same row:
dram[0]:     18153     18123     15120     15118     15110     15110      8751      8752     12882     12878     18296     18045     17501     17499     17681     17638 
dram[1]:     18148     18167     15121     15121     15109     15089      8752      8751     12876     12874     18263     18206     17534     17558     17629     17674 
dram[2]:     18168     18168     15119     15116     15088     15089      8752      8751     12756     12868     18317     18239     17242     17113     17681     17675 
dram[3]:     18161     18150     15116     15122     15090     15090      8751      8752     12846     12631     18108     18210     17147     17156     17678     17685 
dram[4]:     18146     18170     15122     15120     15089     15082      8752      8752     12827     12791     18205     18200     17273     17094     17689     17688 
dram[5]:     18163     18170     15122     15118     15108     15118      8753      8752     12780     12817     17926     18170     17451     17074     17688     17691 
dram[6]:     18164     18163     15124     15121     15117     15117      8752      8751     12789     12630     18080     18553     17297     17314     17694     17659 
dram[7]:     18164     18167     15120     15122     15106     15117      8744      8745     12644     12638     18633     18423     17114     17397     17657     17656 
dram[8]:     18167     18207     15122     15124     15106     15095      8746      8745     12590     12595     18409     18238     17315     14701     17655     17643 
dram[9]:     18208     18234     15120     15123     15095     15093      8744      8745     12879     12876     18404     18318     17319     14620     17658     17671 
dram[10]:     18243     18159     15122     15121     15088     15098      8744      8745     12889     12889     18411     18186     17473     17182     17664     17671 
average row accesses per activate:
dram[0]: 13.500000 13.250000 16.000000 16.000000 12.250000 12.250000 10.666667 10.666667 11.400000 11.400000 36.142857 40.571430 24.500000 25.375000 16.000000 16.000000 
dram[1]: 13.250000 13.250000 16.000000 16.000000 12.250000 12.250000 10.666667 10.666667 11.400000 11.200000 34.142857 34.857143 24.875000 30.333334 16.000000 16.000000 
dram[2]: 13.000000 13.000000 16.000000 16.000000 12.250000 12.250000 10.666667 10.666667  8.000000 11.200000 38.714287 37.142857 37.666668 24.375000 16.000000 16.000000 
dram[3]: 13.000000 13.000000 16.000000 16.000000 12.250000 12.250000 10.666667 10.666667  8.000000  8.000000 36.000000 33.857143 27.375000 24.125000 16.000000 16.000000 
dram[4]: 13.000000 13.000000 16.000000 16.000000 12.250000 12.250000 10.666667 10.666667 11.200000  8.000000 37.428570 32.857143 27.000000 24.375000 13.000000 13.000000 
dram[5]: 13.000000 13.000000 16.000000 16.000000 12.250000 12.250000 10.666667 10.666667  8.000000  8.000000 40.142857 38.571430 31.166666 24.125000 13.000000 13.000000 
dram[6]: 13.000000 13.000000 16.000000 16.000000 12.500000 12.500000 10.666667 10.666667  8.000000  8.000000 37.571430 35.857143 24.375000 35.166668 13.000000 13.000000 
dram[7]: 13.000000 13.000000 16.000000 16.000000 12.500000 12.500000 10.666667 10.666667  8.000000  8.000000 38.571430 38.428570 23.375000 33.833332 16.000000 16.000000 
dram[8]: 13.000000 13.000000 16.000000 16.000000 12.500000 12.500000 10.666667 10.666667  8.000000  8.000000 37.428570 36.571430 32.500000 26.000000 16.000000 16.000000 
dram[9]: 13.000000 13.000000 16.000000 16.000000 12.500000 12.500000 10.666667 10.666667 11.200000 11.200000 37.857143 39.714287 36.500000 23.375000 16.000000 16.000000 
dram[10]: 13.000000 13.000000 16.000000 16.000000 12.500000 12.500000 10.666667 10.666667 11.200000 11.200000 39.714287 37.428570 36.500000 32.500000 16.000000 16.000000 
average row locality = 17510/914 = 19.157549
number of total memory accesses made:
dram[0]:         0         0         0         0         0         0         0         0         0         0         0         0         0         0         0         0 
dram[1]:         0         0         0         0         0         0         0         0         0         0         0         0         0         0         0         0 
dram[2]:         0         0         0         0         0         0         0         0         0         0         0         0         0         0         0         0 
dram[3]:         0         0         0         0         0         0         0         0         0         0         0         0         0         0         0         0 
dram[4]:         0         0         0         0         0         0         0         0         0         0         0         0         0         0         0         0 
dram[5]:         0         0         0         0         0         0         0         0         0         0         0         0         0         0         0         0 
dram[6]:         0         0         0         0         0         0         0         0         0         0         0         0         0         0         0         0 
dram[7]:         0         0         0         0         0         0         0         0         0         0         0         0         0         0         0         0 
dram[8]:         0         0         0         0         0         0         0         0         0         0         0         0         0         0         0         0 
dram[9]:         0         0         0         0         0         0         0         0         0         0         0         0         0         0         0         0 
dram[10]:         0         0         0         0         0         0         0         0         0         0         0         0         0         0         0         0 
total accesses: 0
min_bank_accesses = 0!
min_chip_accesses = 0!
number of total read accesses:
dram[0]:        54        53        48        48        49        49        64        64        57        57        76        76        76        75        64        64 
dram[1]:        53        53        48        48        49        49        64        64        57        56        76        76        75        75        64        64 
dram[2]:        52        52        48        48        49        49        64        64        56        56        76        76        75        75        64        64 
dram[3]:        52        52        48        48        49        49        64        64        56        56        76        76        75        75        64        64 
dram[4]:        52        52        48        48        49        49        64        64        56        56        76        76        75        75        65        65 
dram[5]:        52        52        48        48        49        49        64        64        56        56        78        78        75        75        65        65 
dram[6]:        52        52        48        48        50        50        64        64        56        56        78        78        75        75        65        65 
dram[7]:        52        52        48        48        50        50        64        64        56        56        78        78        75        75        64        64 
dram[8]:        52        52        48        48        50        50        64        64        56        56        78        78        75        75        64        64 
dram[9]:        52        52        48        48        50        50        64        64        56        56        78        78        75        75        64        64 
dram[10]:        52        52        48        48        50        50        64        64        56        56        78        78        75        75        64        64 
total reads: 10697
bank skew: 78/48 = 1.62
chip skew: 976/968 = 1.01
number of total write accesses:
dram[0]:         0         0         0         0         0         0         0         0         0         0       177       208       120       128         0         0 
dram[1]:         0         0         0         0         0         0         0         0         0         0       163       168       124       107         0         0 
dram[2]:         0         0         0         0         0         0         0         0         0         0       195       184       151       120         0         0 
dram[3]:         0         0         0         0         0         0         0         0         0         0       176       161       144       118         0         0 
dram[4]:         0         0         0         0         0         0         0         0         0         0       186       154       141       120         0         0 
dram[5]:         0         0         0         0         0         0         0         0         0         0       203       192       112       118         0         0 
dram[6]:         0         0         0         0         0         0         0         0         0         0       185       173       120       136         0         0 
dram[7]:         0         0         0         0         0         0         0         0         0         0       192       191       112       128         0         0 
dram[8]:         0         0         0         0         0         0         0         0         0         0       184       178       120       133         0         0 
dram[9]:         0         0         0         0         0         0         0         0         0         0       187       200       144       112         0         0 
dram[10]:         0         0         0         0         0         0         0         0         0         0       200       184       144       120         0         0 
total reads: 6813
min_bank_accesses = 0!
chip skew: 650/562 = 1.16
average mf latency per bank:
dram[0]:       3278      3256      6866      6965      5874      5868      7084      7137     19981     20239      2959      2598      1288      1238      2489      2549
dram[1]:       3107      3175      7007      7114      5884      5861      7027      7121     18012     16345      3060      3002      1247      1351      2493      2567
dram[2]:       3285      3296      6876      6974      5784      5880      7099      7120     16301     16313      2744      2898      1144      1302      2519      2548
dram[3]:       3224      3240      6867      6962      5776      6037      7085      7192     16669     16534      2864      3028      1153      1299      2506      2543
dram[4]:       3297      3329      6883      6946      5916      5830      7026      7137     16463     16455      2719      3154      1165      1314      2449      2512
dram[5]:       3277      3317      6873      6954      5762      5835      7035      7064     16430     16508      2693      2809      1359      1305      2473      2499
dram[6]:       3507      3581      6864      7031      5854      5876      7102      7161     16428     16645      2841      2939      1261      1204      2448      2506
dram[7]:       3529      3576      6932      6933      5872      5920      6740      6810     16318     16402      2746      2770      1332      1262      2496      2553
dram[8]:       3504      3535      6839      6954      5862      5909      6764      6801     16788     16953      2833      2867      1314      1210      2482      2504
dram[9]:       3494      3417      6865      7099      5901      6005      6760      6811     20958     20649      2709      2574      1149      1314      2469      2531
dram[10]:       3442      3582      7009      6975      5891      5931      6813      6830     20569     20635      2575      2799      1150      1278      2502      2560
maximum mf latency per bank:
dram[0]:       6532      6541      6561      6642      6387      6499      6290      6307     12992     12917     12666     12697      4822      4802      2241      2308
dram[1]:       6543      6527      6620      6715      6405      6539      6230      6340     12878     12886     12659     12712      4744      4821      2251      2308
dram[2]:       6565      6579      6626      6715      6356      6552      6232      6364     12927     12869     12700     12708      4851      4849      2254      2295
dram[3]:       6566      6580      6643      6721      6342      6429      6242      6311     13245     13265     12680     12715      4878      4645      2286      2299
dram[4]:       6567      6582      6639      6712      6365      6431      6257      6342     13275     13276     12602     12677      4649      4579      2274      2286
dram[5]:       6567      6568      6639      6647      6346      6436      6220      6326     13268     13153     12607     12637      4729      4589      2252      2308
dram[6]:       6625      6636      6582      6644      6345      6453      6259      6323     13180     13153     12581     12636      4769      4740      2264      2327
dram[7]:       6614      6633      6561      6636      6353      6431      6247      6330     13044     13032     12582     12634      4718      4765      2281      2325
dram[8]:       6617      6553      6572      6645      6365      6420      6249      6328     13131     13130     12586     12628      4749      4791      2290      2323
dram[9]:       6555      6536      6566      6629      6406      6482      6266      6333     13059     13062     12578     12623      4767      4740      2280      2309
dram[10]:       6538      6530      6556      6621      6437      6477      6270      6307     13092     13072     12555     12634      4818      4831      2271      2297
Memory Partition 0: 
Cache L2_bank_000:
MSHR contents

Cache L2_bank_001:
MSHR contents

In Dram Latency Queue (total = 0): 
DRAM[0]: 16 bks, busW=4 BL=8 CL=12, tRRD=2 tCCD=6, tRCD=12 tRAS=28 tRP=12 tRC=40
n_cmd=85835 n_nop=81156 n_act=83 n_pre=67 n_req=1607 n_rd=3896 n_write=633 bw_util=0.1055
n_activity=12355 dram_eff=0.7331
bk0: 216a 84384i bk1: 212a 84115i bk2: 192a 85142i bk3: 192a 84758i bk4: 196a 84692i bk5: 196a 84374i bk6: 256a 84534i bk7: 256a 84054i bk8: 228a 84080i bk9: 228a 83638i bk10: 304a 82832i bk11: 304a 82281i bk12: 304a 82739i bk13: 300a 82626i bk14: 256a 83962i bk15: 256a 83567i 
dram_util_bins: 0 0 0 0 0 0 0 0 0 0
dram_eff_bins: 0 0 0 0 0 0 0 0 0 0
mrqq: max=64 avg=2.10903
Memory Partition 1: 
Cache L2_bank_002:
MSHR contents

Cache L2_bank_003:
MSHR contents

In Dram Latency Queue (total = 0): 
DRAM[1]: 16 bks, busW=4 BL=8 CL=12, tRRD=2 tCCD=6, tRCD=12 tRAS=28 tRP=12 tRC=40
n_cmd=85835 n_nop=81245 n_act=80 n_pre=64 n_req=1533 n_rd=3884 n_write=562 bw_util=0.1036
n_activity=12139 dram_eff=0.7325
bk0: 212a 84537i bk1: 212a 84244i bk2: 192a 85083i bk3: 192a 84717i bk4: 196a 84684i bk5: 196a 84341i bk6: 256a 84586i bk7: 256a 84142i bk8: 228a 84043i bk9: 224a 83701i bk10: 304a 82768i bk11: 304a 82323i bk12: 300a 83079i bk13: 300a 82678i bk14: 256a 83930i bk15: 256a 83517i 
dram_util_bins: 0 0 0 0 0 0 0 0 0 0
dram_eff_bins: 0 0 0 0 0 0 0 0 0 0
mrqq: max=64 avg=2.08651
Memory Partition 2: 
Cache L2_bank_004:
MSHR contents

Cache L2_bank_005:
MSHR contents

In Dram Latency Queue (total = 0): 
DRAM[2]: 16 bks, busW=4 BL=8 CL=12, tRRD=2 tCCD=6, tRCD=12 tRAS=28 tRP=12 tRC=40
n_cmd=85835 n_nop=81165 n_act=82 n_pre=66 n_req=1618 n_rd=3872 n_write=650 bw_util=0.1054
n_activity=12543 dram_eff=0.721
bk0: 208a 84493i bk1: 208a 84118i bk2: 192a 85065i bk3: 192a 84721i bk4: 196a 84661i bk5: 196a 84381i bk6: 256a 84426i bk7: 256a 84098i bk8: 224a 84065i bk9: 224a 83829i bk10: 304a 82861i bk11: 304a 82352i bk12: 300a 82861i bk13: 300a 82707i bk14: 256a 83916i bk15: 256a 83597i 
dram_util_bins: 0 0 0 0 0 0 0 0 0 0
dram_eff_bins: 0 0 0 0 0 0 0 0 0 0
mrqq: max=64 avg=2.05255
Memory Partition 3: 
Cache L2_bank_006:
MSHR contents

Cache L2_bank_007:
MSHR contents

In Dram Latency Queue (total = 0): 
DRAM[3]: 16 bks, busW=4 BL=8 CL=12, tRRD=2 tCCD=6, tRCD=12 tRAS=28 tRP=12 tRC=40
n_cmd=85835 n_nop=81208 n_act=86 n_pre=70 n_req=1567 n_rd=3872 n_write=599 bw_util=0.1042
n_activity=12497 dram_eff=0.7155
bk0: 208a 84361i bk1: 208a 84112i bk2: 192a 85168i bk3: 192a 84800i bk4: 196a 84749i bk5: 196a 84413i bk6: 256a 84618i bk7: 256a 84211i bk8: 224a 84203i bk9: 224a 83774i bk10: 304a 82751i bk11: 304a 82385i bk12: 300a 82871i bk13: 300a 82681i bk14: 256a 83929i bk15: 256a 83550i 
dram_util_bins: 0 0 0 0 0 0 0 0 0 0
dram_eff_bins: 0 0 0 0 0 0 0 0 0 0
mrqq: max=64 avg=2.012
Memory Partition 4: 
Cache L2_bank_008:
MSHR contents

Cache L2_bank_009:
MSHR contents

In Dram Latency Queue (total = 0): 
DRAM[4]: 16 bks, busW=4 BL=8 CL=12, tRRD=2 tCCD=6, tRCD=12 tRAS=28 tRP=12 tRC=40
n_cmd=85835 n_nop=81198 n_act=86 n_pre=70 n_req=1571 n_rd=3880 n_write=601 bw_util=0.1044
n_activity=12559 dram_eff=0.7136
bk0: 208a 84561i bk1: 208a 84292i bk2: 192a 85175i bk3: 192a 84862i bk4: 196a 84704i bk5: 196a 84404i bk6: 256a 84583i bk7: 256a 84230i bk8: 224a 84115i bk9: 224a 83751i bk10: 304a 82906i bk11: 304a 82301i bk12: 300a 82828i bk13: 300a 82756i bk14: 260a 83928i bk15: 260a 83610i 
dram_util_bins: 0 0 0 0 0 0 0 0 0 0
dram_eff_bins: 0 0 0 0 0 0 0 0 0 0
mrqq: max=64 avg=2.02274
Memory Partition 5: 
Cache L2_bank_010:
MSHR contents

Cache L2_bank_011:
MSHR contents

In Dram Latency Queue (total = 0): 
DRAM[5]: 16 bks, busW=4 BL=8 CL=12, tRRD=2 tCCD=6, tRCD=12 tRAS=28 tRP=12 tRC=40
n_cmd=85835 n_nop=81158 n_act=86 n_pre=70 n_req=1599 n_rd=3896 n_write=625 bw_util=0.1053
n_activity=12694 dram_eff=0.7123
bk0: 208a 84541i bk1: 208a 84262i bk2: 192a 85150i bk3: 192a 84817i bk4: 196a 84646i bk5: 196a 84354i bk6: 256a 84654i bk7: 256a 84230i bk8: 224a 84134i bk9: 224a 83753i bk10: 312a 82633i bk11: 312a 82135i bk12: 300a 83055i bk13: 300a 82705i bk14: 260a 83993i bk15: 260a 83623i 
dram_util_bins: 0 0 0 0 0 0 0 0 0 0
dram_eff_bins: 0 0 0 0 0 0 0 0 0 0
mrqq: max=64 avg=2.13351
Memory Partition 6: 
Cache L2_bank_012:
MSHR contents

Cache L2_bank_013:
MSHR contents

In Dram Latency Queue (total = 0): 
DRAM[6]: 16 bks, busW=4 BL=8 CL=12, tRRD=2 tCCD=6, tRCD=12 tRAS=28 tRP=12 tRC=40
n_cmd=85835 n_nop=81161 n_act=86 n_pre=70 n_req=1590 n_rd=3904 n_write=614 bw_util=0.1053
n_activity=12771 dram_eff=0.7075
bk0: 208a 84574i bk1: 208a 84286i bk2: 192a 85129i bk3: 192a 84786i bk4: 200a 84663i bk5: 200a 84364i bk6: 256a 84631i bk7: 256a 84249i bk8: 224a 84122i bk9: 224a 83767i bk10: 312a 82767i bk11: 312a 82266i bk12: 300a 83062i bk13: 300a 82587i bk14: 260a 84016i bk15: 260a 83745i 
dram_util_bins: 0 0 0 0 0 0 0 0 0 0
dram_eff_bins: 0 0 0 0 0 0 0 0 0 0
mrqq: max=64 avg=2.12667
Memory Partition 7: 
Cache L2_bank_014:
MSHR contents

Cache L2_bank_015:
MSHR contents

In Dram Latency Queue (total = 0): 
DRAM[7]: 16 bks, busW=4 BL=8 CL=12, tRRD=2 tCCD=6, tRCD=12 tRAS=28 tRP=12 tRC=40
n_cmd=85835 n_nop=81164 n_act=84 n_pre=68 n_req=1597 n_rd=3896 n_write=623 bw_util=0.1053
n_activity=12780 dram_eff=0.7072
bk0: 208a 84629i bk1: 208a 84278i bk2: 192a 85112i bk3: 192a 84764i bk4: 200a 84676i bk5: 200a 84348i bk6: 256a 84575i bk7: 256a 84208i bk8: 224a 83979i bk9: 224a 83628i bk10: 312a 82775i bk11: 312a 82259i bk12: 300a 83012i bk13: 300a 82710i bk14: 256a 84057i bk15: 256a 83750i 
dram_util_bins: 0 0 0 0 0 0 0 0 0 0
dram_eff_bins: 0 0 0 0 0 0 0 0 0 0
mrqq: max=64 avg=2.12147
Memory Partition 8: 
Cache L2_bank_016:
MSHR contents

Cache L2_bank_017:
MSHR contents

In Dram Latency Queue (total = 0): 
DRAM[8]: 16 bks, busW=4 BL=8 CL=12, tRRD=2 tCCD=6, tRCD=12 tRAS=28 tRP=12 tRC=40
n_cmd=85835 n_nop=81172 n_act=84 n_pre=68 n_req=1589 n_rd=3896 n_write=615 bw_util=0.1051
n_activity=12779 dram_eff=0.706
bk0: 208a 84532i bk1: 208a 84273i bk2: 192a 85139i bk3: 192a 84780i bk4: 200a 84601i bk5: 200a 84333i bk6: 256a 84618i bk7: 256a 84215i bk8: 224a 84004i bk9: 224a 83555i bk10: 312a 82586i bk11: 312a 82023i bk12: 300a 82941i bk13: 300a 82556i bk14: 256a 83912i bk15: 256a 83692i 
dram_util_bins: 0 0 0 0 0 0 0 0 0 0
dram_eff_bins: 0 0 0 0 0 0 0 0 0 0
mrqq: max=64 avg=2.11727
Memory Partition 9: 
Cache L2_bank_018:
MSHR contents

Cache L2_bank_019:
MSHR contents

In Dram Latency Queue (total = 0): 
DRAM[9]: 16 bks, busW=4 BL=8 CL=12, tRRD=2 tCCD=6, tRCD=12 tRAS=28 tRP=12 tRC=40
n_cmd=85835 n_nop=81152 n_act=80 n_pre=64 n_req=1617 n_rd=3896 n_write=643 bw_util=0.1058
n_activity=12429 dram_eff=0.7304
bk0: 208a 84557i bk1: 208a 84230i bk2: 192a 85117i bk3: 192a 84780i bk4: 200a 84611i bk5: 200a 84355i bk6: 256a 84526i bk7: 256a 84133i bk8: 224a 84001i bk9: 224a 83653i bk10: 312a 82542i bk11: 312a 82060i bk12: 300a 82748i bk13: 300a 82615i bk14: 256a 83836i bk15: 256a 83481i 
dram_util_bins: 0 0 0 0 0 0 0 0 0 0
dram_eff_bins: 0 0 0 0 0 0 0 0 0 0
mrqq: max=64 avg=2.13554
Memory Partition 10: 
Cache L2_bank_020:
MSHR contents

Cache L2_bank_021:
MSHR contents

In Dram Latency Queue (total = 0): 
DRAM[10]: 16 bks, busW=4 BL=8 CL=12, tRRD=2 tCCD=6, tRCD=12 tRAS=28 tRP=12 tRC=40
n_cmd=85835 n_nop=81151 n_act=78 n_pre=62 n_req=1622 n_rd=3896 n_write=648 bw_util=0.1059
n_activity=12399 dram_eff=0.733
bk0: 208a 84506i bk1: 208a 84165i bk2: 192a 85135i bk3: 192a 84775i bk4: 200a 84685i bk5: 200a 84365i bk6: 256a 84625i bk7: 256a 84157i bk8: 224a 84091i bk9: 224a 83684i bk10: 312a 82558i bk11: 312a 82139i bk12: 300a 82683i bk13: 300a 82596i bk14: 256a 83862i bk15: 256a 83545i 
dram_util_bins: 0 0 0 0 0 0 0 0 0 0
dram_eff_bins: 0 0 0 0 0 0 0 0 0 0
mrqq: max=64 avg=2.09601

========= L2 cache stats =========
L2_cache_bank[0]: Access = 2516, Miss = 488, Miss_rate = 0.194, Pending_hits = 1064, Reservation_fails = 0
L2_cache_bank[1]: Access = 2480, Miss = 486, Miss_rate = 0.196, Pending_hits = 1043, Reservation_fails = 0
L2_cache_bank[2]: Access = 2470, Miss = 486, Miss_rate = 0.197, Pending_hits = 988, Reservation_fails = 0
L2_cache_bank[3]: Access = 2461, Miss = 485, Miss_rate = 0.197, Pending_hits = 961, Reservation_fails = 0
L2_cache_bank[4]: Access = 2459, Miss = 484, Miss_rate = 0.197, Pending_hits = 1057, Reservation_fails = 0
L2_cache_bank[5]: Access = 2459, Miss = 484, Miss_rate = 0.197, Pending_hits = 1011, Reservation_fails = 0
L2_cache_bank[6]: Access = 2459, Miss = 484, Miss_rate = 0.197, Pending_hits = 1016, Reservation_fails = 0
L2_cache_bank[7]: Access = 2457, Miss = 484, Miss_rate = 0.197, Pending_hits = 980, Reservation_fails = 0
L2_cache_bank[8]: Access = 2487, Miss = 485, Miss_rate = 0.195, Pending_hits = 1042, Reservation_fails = 0
L2_cache_bank[9]: Access = 2487, Miss = 485, Miss_rate = 0.195, Pending_hits = 1004, Reservation_fails = 0
L2_cache_bank[10]: Access = 2505, Miss = 487, Miss_rate = 0.194, Pending_hits = 1049, Reservation_fails = 0
L2_cache_bank[11]: Access = 2507, Miss = 487, Miss_rate = 0.194, Pending_hits = 1028, Reservation_fails = 0
L2_cache_bank[12]: Access = 2521, Miss = 488, Miss_rate = 0.194, Pending_hits = 1036, Reservation_fails = 0
L2_cache_bank[13]: Access = 2524, Miss = 488, Miss_rate = 0.193, Pending_hits = 1040, Reservation_fails = 0
L2_cache_bank[14]: Access = 2496, Miss = 487, Miss_rate = 0.195, Pending_hits = 1007, Reservation_fails = 0
L2_cache_bank[15]: Access = 2496, Miss = 487, Miss_rate = 0.195, Pending_hits = 1034, Reservation_fails = 0
L2_cache_bank[16]: Access = 2496, Miss = 487, Miss_rate = 0.195, Pending_hits = 1013, Reservation_fails = 0
L2_cache_bank[17]: Access = 2494, Miss = 487, Miss_rate = 0.195, Pending_hits = 1018, Reservation_fails = 0
L2_cache_bank[18]: Access = 2496, Miss = 487, Miss_rate = 0.195, Pending_hits = 1037, Reservation_fails = 0
L2_cache_bank[19]: Access = 2496, Miss = 487, Miss_rate = 0.195, Pending_hits = 998, Reservation_fails = 0
L2_cache_bank[20]: Access = 2496, Miss = 487, Miss_rate = 0.195, Pending_hits = 1067, Reservation_fails = 0
L2_cache_bank[21]: Access = 2496, Miss = 487, Miss_rate = 0.195, Pending_hits = 1008, Reservation_fails = 0
L2_total_cache_accesses = 54758
L2_total_cache_misses = 10697
L2_total_cache_miss_rate = 0.1954
L2_total_cache_pending_hits = 22501
L2_total_cache_reservation_fails = 0
L2_total_cache_breakdown:
	L2_cache_stats_breakdown[GLOBAL_ACC_R][HIT] = 1343
	L2_cache_stats_breakdown[GLOBAL_ACC_R][HIT_RESERVED] = 16092
	L2_cache_stats_breakdown[GLOBAL_ACC_R][MISS] = 10127
	L2_cache_stats_breakdown[GLOBAL_ACC_R][RESERVATION_FAIL] = 0
	L2_cache_stats_breakdown[LOCAL_ACC_R][HIT] = 0
	L2_cache_stats_breakdown[LOCAL_ACC_R][HIT_RESERVED] = 0
	L2_cache_stats_breakdown[LOCAL_ACC_R][MISS] = 0
	L2_cache_stats_breakdown[LOCAL_ACC_R][RESERVATION_FAIL] = 0
	L2_cache_stats_breakdown[CONST_ACC_R][HIT] = 0
	L2_cache_stats_breakdown[CONST_ACC_R][HIT_RESERVED] = 27
	L2_cache_stats_breakdown[CONST_ACC_R][MISS] = 1
	L2_cache_stats_breakdown[CONST_ACC_R][RESERVATION_FAIL] = 0
	L2_cache_stats_breakdown[TEXTURE_ACC_R][HIT] = 0
	L2_cache_stats_breakdown[TEXTURE_ACC_R][HIT_RESERVED] = 0
	L2_cache_stats_breakdown[TEXTURE_ACC_R][MISS] = 0
	L2_cache_stats_breakdown[TEXTURE_ACC_R][RESERVATION_FAIL] = 0
	L2_cache_stats_breakdown[GLOBAL_ACC_W][HIT] = 20187
	L2_cache_stats_breakdown[GLOBAL_ACC_W][HIT_RESERVED] = 6250
	L2_cache_stats_breakdown[GLOBAL_ACC_W][MISS] = 563
	L2_cache_stats_breakdown[GLOBAL_ACC_W][RESERVATION_FAIL] = 0
	L2_cache_stats_breakdown[LOCAL_ACC_W][HIT] = 0
	L2_cache_stats_breakdown[LOCAL_ACC_W][HIT_RESERVED] = 0
	L2_cache_stats_breakdown[LOCAL_ACC_W][MISS] = 0
	L2_cache_stats_breakdown[LOCAL_ACC_W][RESERVATION_FAIL] = 0
	L2_cache_stats_breakdown[L1_WRBK_ACC][HIT] = 0
	L2_cache_stats_breakdown[L1_WRBK_ACC][HIT_RESERVED] = 0
	L2_cache_stats_breakdown[L1_WRBK_ACC][MISS] = 0
	L2_cache_stats_breakdown[L1_WRBK_ACC][RESERVATION_FAIL] = 0
	L2_cache_stats_breakdown[L2_WRBK_ACC][HIT] = 0
	L2_cache_stats_breakdown[L2_WRBK_ACC][HIT_RESERVED] = 0
	L2_cache_stats_breakdown[L2_WRBK_ACC][MISS] = 0
	L2_cache_stats_breakdown[L2_WRBK_ACC][RESERVATION_FAIL] = 0
	L2_cache_stats_breakdown[INST_ACC_R][HIT] = 30
	L2_cache_stats_breakdown[INST_ACC_R][HIT_RESERVED] = 132
	L2_cache_stats_breakdown[INST_ACC_R][MISS] = 6
	L2_cache_stats_breakdown[INST_ACC_R][RESERVATION_FAIL] = 0
	L2_cache_stats_breakdown[L1_WR_ALLOC_R][HIT] = 0
	L2_cache_stats_breakdown[L1_WR_ALLOC_R][HIT_RESERVED] = 0
	L2_cache_stats_breakdown[L1_WR_ALLOC_R][MISS] = 0
	L2_cache_stats_breakdown[L1_WR_ALLOC_R][RESERVATION_FAIL] = 0
	L2_cache_stats_breakdown[L2_WR_ALLOC_R][HIT] = 0
	L2_cache_stats_breakdown[L2_WR_ALLOC_R][HIT_RESERVED] = 0
	L2_cache_stats_breakdown[L2_WR_ALLOC_R][MISS] = 0
	L2_cache_stats_breakdown[L2_WR_ALLOC_R][RESERVATION_FAIL] = 0
	L2_cache_stats_breakdown[GLOBAL_ACC_R][TOTAL_ACCESS] = 27562
	L2_cache_stats_breakdown[CONST_ACC_R][TOTAL_ACCESS] = 28
	L2_cache_stats_breakdown[GLOBAL_ACC_W][TOTAL_ACCESS] = 27000
	L2_cache_stats_breakdown[INST_ACC_R][TOTAL_ACCESS] = 168
L2_cache_data_port_util = 0.053
L2_cache_fill_port_util = 0.042

icnt_total_pkts_mem_to_simt=117361
icnt_total_pkts_simt_to_mem=113257
LD_mem_lat_dist  0 0 0 0 0 0 0 0 0 0 0 0 0 0 0 0 0 0 0 0 0 0 0 0 0 0 0
ST_mem_lat_dist  0 0 0 0 0 0 0 0 0 0 0 0 0 0 0 0 0 0 0 0 0 0 0 0 0 0 0
----------------------------Interconnect-DETAILS--------------------------------
Class 0:
Packet latency average = 19.8136
	minimum = 6
	maximum = 208
Network latency average = 14.4501
	minimum = 6
	maximum = 147
Slowest packet = 32165
Flit latency average = 13.601
	minimum = 6
	maximum = 143
Slowest flit = 113325
Fragmentation average = 0
	minimum = 0
	maximum = 0
Injected packet rate average = 0.0236914
	minimum = 0.0204647 (at node 19)
	maximum = 0.0273007 (at node 41)
Accepted packet rate average = 0.0236914
	minimum = 0.0204647 (at node 19)
	maximum = 0.0273007 (at node 41)
Injected flit rate average = 0.0498892
	minimum = 0.0422598 (at node 19)
	maximum = 0.0590469 (at node 41)
Accepted flit rate average= 0.0498892
	minimum = 0.0439471 (at node 19)
	maximum = 0.0561481 (at node 41)
Injected packet length average = 2.10579
Accepted packet length average = 2.10579
Total in-flight flits = 0 (0 measured)
====== Overall Traffic Statistics ======
====== Traffic class 0 ======
Packet latency average = 19.8136 (1 samples)
	minimum = 6 (1 samples)
	maximum = 208 (1 samples)
Network latency average = 14.4501 (1 samples)
	minimum = 6 (1 samples)
	maximum = 147 (1 samples)
Flit latency average = 13.601 (1 samples)
	minimum = 6 (1 samples)
	maximum = 143 (1 samples)
Fragmentation average = 0 (1 samples)
	minimum = 0 (1 samples)
	maximum = 0 (1 samples)
Injected packet rate average = 0.0236914 (1 samples)
	minimum = 0.0204647 (1 samples)
	maximum = 0.0273007 (1 samples)
Accepted packet rate average = 0.0236914 (1 samples)
	minimum = 0.0204647 (1 samples)
	maximum = 0.0273007 (1 samples)
Injected flit rate average = 0.0498892 (1 samples)
	minimum = 0.0422598 (1 samples)
	maximum = 0.0590469 (1 samples)
Accepted flit rate average = 0.0498892 (1 samples)
	minimum = 0.0439471 (1 samples)
	maximum = 0.0561481 (1 samples)
Injected packet size average = 2.10579 (1 samples)
Accepted packet size average = 2.10579 (1 samples)
Hops average = 1 (1 samples)
----------------------------END-of-Interconnect-DETAILS-------------------------


gpgpu_simulation_time = 0 days, 0 hrs, 1 min, 43 sec (103 sec)
gpgpu_simulation_rate = 299883 (inst/sec)
gpgpu_simulation_rate = 2605 (cycle/sec)
GPGPU-Sim: synchronize waiting for inactive GPU simulation
GPGPU-Sim API: Stream Manager State
GPGPU-Sim: detected inactive GPU simulation thread

GPGPU-Sim PTX: cudaLaunch for 0x0x402d5b (mode=performance simulation) on stream 0
GPGPU-Sim PTX: pushing kernel '_Z24bpnn_adjust_weights_cudaPfiS_iS_S_' to stream 0, gridDim= (1,1125,1) blockDim = (16,16,1) 
GPGPU-Sim uArch: Shader 13 bind to kernel 2 '_Z24bpnn_adjust_weights_cudaPfiS_iS_S_'
GPGPU-Sim uArch: CTA/core = 8, limited by: threads
GPGPU-Sim uArch: Shader 14 bind to kernel 2 '_Z24bpnn_adjust_weights_cudaPfiS_iS_S_'
GPGPU-Sim uArch: Shader 15 bind to kernel 2 '_Z24bpnn_adjust_weights_cudaPfiS_iS_S_'
GPGPU-Sim uArch: Shader 16 bind to kernel 2 '_Z24bpnn_adjust_weights_cudaPfiS_iS_S_'
GPGPU-Sim uArch: Shader 17 bind to kernel 2 '_Z24bpnn_adjust_weights_cudaPfiS_iS_S_'
GPGPU-Sim uArch: Shader 18 bind to kernel 2 '_Z24bpnn_adjust_weights_cudaPfiS_iS_S_'
GPGPU-Sim uArch: Shader 19 bind to kernel 2 '_Z24bpnn_adjust_weights_cudaPfiS_iS_S_'
GPGPU-Sim uArch: Shader 20 bind to kernel 2 '_Z24bpnn_adjust_weights_cudaPfiS_iS_S_'
GPGPU-Sim uArch: Shader 21 bind to kernel 2 '_Z24bpnn_adjust_weights_cudaPfiS_iS_S_'
GPGPU-Sim uArch: Shader 22 bind to kernel 2 '_Z24bpnn_adjust_weights_cudaPfiS_iS_S_'
GPGPU-Sim uArch: Shader 23 bind to kernel 2 '_Z24bpnn_adjust_weights_cudaPfiS_iS_S_'
GPGPU-Sim uArch: Shader 24 bind to kernel 2 '_Z24bpnn_adjust_weights_cudaPfiS_iS_S_'
GPGPU-Sim uArch: Shader 25 bind to kernel 2 '_Z24bpnn_adjust_weights_cudaPfiS_iS_S_'
GPGPU-Sim uArch: Shader 26 bind to kernel 2 '_Z24bpnn_adjust_weights_cudaPfiS_iS_S_'
GPGPU-Sim uArch: Shader 27 bind to kernel 2 '_Z24bpnn_adjust_weights_cudaPfiS_iS_S_'
GPGPU-Sim uArch: Shader 0 bind to kernel 2 '_Z24bpnn_adjust_weights_cudaPfiS_iS_S_'
GPGPU-Sim uArch: Shader 1 bind to kernel 2 '_Z24bpnn_adjust_weights_cudaPfiS_iS_S_'
GPGPU-Sim uArch: Shader 2 bind to kernel 2 '_Z24bpnn_adjust_weights_cudaPfiS_iS_S_'
GPGPU-Sim uArch: Shader 3 bind to kernel 2 '_Z24bpnn_adjust_weights_cudaPfiS_iS_S_'
GPGPU-Sim uArch: Shader 4 bind to kernel 2 '_Z24bpnn_adjust_weights_cudaPfiS_iS_S_'
GPGPU-Sim uArch: Shader 5 bind to kernel 2 '_Z24bpnn_adjust_weights_cudaPfiS_iS_S_'
GPGPU-Sim uArch: Shader 6 bind to kernel 2 '_Z24bpnn_adjust_weights_cudaPfiS_iS_S_'
GPGPU-Sim uArch: Shader 7 bind to kernel 2 '_Z24bpnn_adjust_weights_cudaPfiS_iS_S_'
GPGPU-Sim uArch: Shader 8 bind to kernel 2 '_Z24bpnn_adjust_weights_cudaPfiS_iS_S_'
GPGPU-Sim uArch: Shader 9 bind to kernel 2 '_Z24bpnn_adjust_weights_cudaPfiS_iS_S_'
GPGPU-Sim uArch: Shader 10 bind to kernel 2 '_Z24bpnn_adjust_weights_cudaPfiS_iS_S_'
GPGPU-Sim uArch: Shader 11 bind to kernel 2 '_Z24bpnn_adjust_weights_cudaPfiS_iS_S_'
GPGPU-Sim uArch: Shader 12 bind to kernel 2 '_Z24bpnn_adjust_weights_cudaPfiS_iS_S_'
Destroy streams for kernel 2: size 0
kernel_name = _Z24bpnn_adjust_weights_cudaPfiS_iS_S_ 
kernel_launch_uid = 2 
gpu_sim_cycle = 167785
gpu_sim_insn = 15552352
gpu_ipc =      92.6921
gpu_tot_sim_cycle = 675175
gpu_tot_sim_insn = 46440352
gpu_tot_ipc =      68.7827
gpu_tot_issued_cta = 2250
max_total_param_size = 0
gpu_stall_dramfull = 64967
gpu_stall_icnt2sh    = 95344
partiton_reqs_in_parallel = 3626506
partiton_reqs_in_parallel_total    = 1016791
partiton_level_parallism =      21.6140
partiton_level_parallism_total  =       6.8772
partiton_reqs_in_parallel_util = 3626506
partiton_reqs_in_parallel_util_total    = 1016791
gpu_sim_cycle_parition_util = 167785
gpu_tot_sim_cycle_parition_util    = 46227
partiton_level_parallism_util =      21.6140
partiton_level_parallism_util_total  =      21.6964
partiton_replys_in_parallel = 127244
partiton_replys_in_parallel_total    = 54758
L2_BW  =      71.8818 GB/Sec
L2_BW_total  =      25.5502 GB/Sec
gpu_total_sim_rate=75882

========= Core cache stats =========
L1I_cache:
	L1I_total_cache_accesses = 894386
	L1I_total_cache_misses = 6693
	L1I_total_cache_miss_rate = 0.0075
	L1I_total_cache_pending_hits = 0
	L1I_total_cache_reservation_fails = 61360
L1D_cache:
	L1D_cache_core[0]: Access = 0, Miss = 0, Miss_rate = -nan, Pending_hits = 0, Reservation_fails = 0
	L1D_cache_core[1]: Access = 0, Miss = 0, Miss_rate = -nan, Pending_hits = 0, Reservation_fails = 0
	L1D_cache_core[2]: Access = 0, Miss = 0, Miss_rate = -nan, Pending_hits = 0, Reservation_fails = 0
	L1D_cache_core[3]: Access = 0, Miss = 0, Miss_rate = -nan, Pending_hits = 0, Reservation_fails = 0
	L1D_cache_core[4]: Access = 0, Miss = 0, Miss_rate = -nan, Pending_hits = 0, Reservation_fails = 0
	L1D_cache_core[5]: Access = 0, Miss = 0, Miss_rate = -nan, Pending_hits = 0, Reservation_fails = 0
	L1D_cache_core[6]: Access = 0, Miss = 0, Miss_rate = -nan, Pending_hits = 0, Reservation_fails = 0
	L1D_cache_core[7]: Access = 0, Miss = 0, Miss_rate = -nan, Pending_hits = 0, Reservation_fails = 0
	L1D_cache_core[8]: Access = 0, Miss = 0, Miss_rate = -nan, Pending_hits = 0, Reservation_fails = 0
	L1D_cache_core[9]: Access = 0, Miss = 0, Miss_rate = -nan, Pending_hits = 0, Reservation_fails = 0
	L1D_cache_core[10]: Access = 0, Miss = 0, Miss_rate = -nan, Pending_hits = 0, Reservation_fails = 0
	L1D_cache_core[11]: Access = 0, Miss = 0, Miss_rate = -nan, Pending_hits = 0, Reservation_fails = 0
	L1D_cache_core[12]: Access = 0, Miss = 0, Miss_rate = -nan, Pending_hits = 0, Reservation_fails = 0
	L1D_cache_core[13]: Access = 0, Miss = 0, Miss_rate = -nan, Pending_hits = 0, Reservation_fails = 0
	L1D_cache_core[14]: Access = 0, Miss = 0, Miss_rate = -nan, Pending_hits = 0, Reservation_fails = 0
	L1D_cache_core[15]: Access = 0, Miss = 0, Miss_rate = -nan, Pending_hits = 0, Reservation_fails = 0
	L1D_cache_core[16]: Access = 0, Miss = 0, Miss_rate = -nan, Pending_hits = 0, Reservation_fails = 0
	L1D_cache_core[17]: Access = 0, Miss = 0, Miss_rate = -nan, Pending_hits = 0, Reservation_fails = 0
	L1D_cache_core[18]: Access = 0, Miss = 0, Miss_rate = -nan, Pending_hits = 0, Reservation_fails = 0
	L1D_cache_core[19]: Access = 0, Miss = 0, Miss_rate = -nan, Pending_hits = 0, Reservation_fails = 0
	L1D_cache_core[20]: Access = 0, Miss = 0, Miss_rate = -nan, Pending_hits = 0, Reservation_fails = 0
	L1D_cache_core[21]: Access = 0, Miss = 0, Miss_rate = -nan, Pending_hits = 0, Reservation_fails = 0
	L1D_cache_core[22]: Access = 0, Miss = 0, Miss_rate = -nan, Pending_hits = 0, Reservation_fails = 0
	L1D_cache_core[23]: Access = 0, Miss = 0, Miss_rate = -nan, Pending_hits = 0, Reservation_fails = 0
	L1D_cache_core[24]: Access = 0, Miss = 0, Miss_rate = -nan, Pending_hits = 0, Reservation_fails = 0
	L1D_cache_core[25]: Access = 0, Miss = 0, Miss_rate = -nan, Pending_hits = 0, Reservation_fails = 0
	L1D_cache_core[26]: Access = 0, Miss = 0, Miss_rate = -nan, Pending_hits = 0, Reservation_fails = 0
	L1D_cache_core[27]: Access = 0, Miss = 0, Miss_rate = -nan, Pending_hits = 0, Reservation_fails = 0
	L1D_total_cache_accesses = 0
	L1D_total_cache_misses = 0
	L1D_total_cache_pending_hits = 0
	L1D_total_cache_reservation_fails = 0
	L1D_cache_data_port_util = 0.000
	L1D_cache_fill_port_util = 0.000
L1C_cache:
	L1C_total_cache_accesses = 81000
	L1C_total_cache_misses = 1792
	L1C_total_cache_miss_rate = 0.0221
	L1C_total_cache_pending_hits = 0
	L1C_total_cache_reservation_fails = 4886
L1T_cache:
	L1T_total_cache_accesses = 0
	L1T_total_cache_misses = 0
	L1T_total_cache_pending_hits = 0
	L1T_total_cache_reservation_fails = 0

Total_core_cache_stats:
	Total_core_cache_stats_breakdown[GLOBAL_ACC_R][HIT] = 0
	Total_core_cache_stats_breakdown[GLOBAL_ACC_R][HIT_RESERVED] = 0
	Total_core_cache_stats_breakdown[GLOBAL_ACC_R][MISS] = 0
	Total_core_cache_stats_breakdown[GLOBAL_ACC_R][RESERVATION_FAIL] = 0
	Total_core_cache_stats_breakdown[LOCAL_ACC_R][HIT] = 0
	Total_core_cache_stats_breakdown[LOCAL_ACC_R][HIT_RESERVED] = 0
	Total_core_cache_stats_breakdown[LOCAL_ACC_R][MISS] = 0
	Total_core_cache_stats_breakdown[LOCAL_ACC_R][RESERVATION_FAIL] = 0
	Total_core_cache_stats_breakdown[CONST_ACC_R][HIT] = 79208
	Total_core_cache_stats_breakdown[CONST_ACC_R][HIT_RESERVED] = 0
	Total_core_cache_stats_breakdown[CONST_ACC_R][MISS] = 1792
	Total_core_cache_stats_breakdown[CONST_ACC_R][RESERVATION_FAIL] = 4886
	Total_core_cache_stats_breakdown[TEXTURE_ACC_R][HIT] = 0
	Total_core_cache_stats_breakdown[TEXTURE_ACC_R][HIT_RESERVED] = 0
	Total_core_cache_stats_breakdown[TEXTURE_ACC_R][MISS] = 0
	Total_core_cache_stats_breakdown[TEXTURE_ACC_R][RESERVATION_FAIL] = 0
	Total_core_cache_stats_breakdown[GLOBAL_ACC_W][HIT] = 0
	Total_core_cache_stats_breakdown[GLOBAL_ACC_W][HIT_RESERVED] = 0
	Total_core_cache_stats_breakdown[GLOBAL_ACC_W][MISS] = 0
	Total_core_cache_stats_breakdown[GLOBAL_ACC_W][RESERVATION_FAIL] = 0
	Total_core_cache_stats_breakdown[LOCAL_ACC_W][HIT] = 0
	Total_core_cache_stats_breakdown[LOCAL_ACC_W][HIT_RESERVED] = 0
	Total_core_cache_stats_breakdown[LOCAL_ACC_W][MISS] = 0
	Total_core_cache_stats_breakdown[LOCAL_ACC_W][RESERVATION_FAIL] = 0
	Total_core_cache_stats_breakdown[L1_WRBK_ACC][HIT] = 0
	Total_core_cache_stats_breakdown[L1_WRBK_ACC][HIT_RESERVED] = 0
	Total_core_cache_stats_breakdown[L1_WRBK_ACC][MISS] = 0
	Total_core_cache_stats_breakdown[L1_WRBK_ACC][RESERVATION_FAIL] = 0
	Total_core_cache_stats_breakdown[L2_WRBK_ACC][HIT] = 0
	Total_core_cache_stats_breakdown[L2_WRBK_ACC][HIT_RESERVED] = 0
	Total_core_cache_stats_breakdown[L2_WRBK_ACC][MISS] = 0
	Total_core_cache_stats_breakdown[L2_WRBK_ACC][RESERVATION_FAIL] = 0
	Total_core_cache_stats_breakdown[INST_ACC_R][HIT] = 887693
	Total_core_cache_stats_breakdown[INST_ACC_R][HIT_RESERVED] = 0
	Total_core_cache_stats_breakdown[INST_ACC_R][MISS] = 6693
	Total_core_cache_stats_breakdown[INST_ACC_R][RESERVATION_FAIL] = 61360
	Total_core_cache_stats_breakdown[L1_WR_ALLOC_R][HIT] = 0
	Total_core_cache_stats_breakdown[L1_WR_ALLOC_R][HIT_RESERVED] = 0
	Total_core_cache_stats_breakdown[L1_WR_ALLOC_R][MISS] = 0
	Total_core_cache_stats_breakdown[L1_WR_ALLOC_R][RESERVATION_FAIL] = 0
	Total_core_cache_stats_breakdown[L2_WR_ALLOC_R][HIT] = 0
	Total_core_cache_stats_breakdown[L2_WR_ALLOC_R][HIT_RESERVED] = 0
	Total_core_cache_stats_breakdown[L2_WR_ALLOC_R][MISS] = 0
	Total_core_cache_stats_breakdown[L2_WR_ALLOC_R][RESERVATION_FAIL] = 0
	Total_core_cache_stats_breakdown[CONST_ACC_R][TOTAL_ACCESS] = 81000
	Total_core_cache_stats_breakdown[INST_ACC_R][TOTAL_ACCESS] = 894386
Shader 0 warp_id issue ditsribution:
warp_id:
0, 1, 2, 3, 4, 5, 6, 7, 8, 9, 10, 11, 12, 13, 14, 15, 16, 17, 18, 19, 20, 21, 22, 23, 24, 25, 26, 27, 28, 29, 30, 31, 32, 33, 34, 35, 36, 37, 38, 39, 40, 41, 42, 43, 44, 45, 46, 47, 48, 49, 50, 51, 52, 53, 54, 55, 56, 57, 58, 59, 60, 61, 62, 63, 
distro:
[...]
F:   643085----T:   643345 	 St: 80502000 Sz: 4096 	 Sm: 0 	 T: write_back(0.175557)
F:   643209----T:   643469 	 St: 8059b000 Sz: 4096 	 Sm: 0 	 T: memcpy_h2d(0.175557)
F:   643345----T:   643605 	 St: 80503000 Sz: 4096 	 Sm: 0 	 T: write_back(0.175557)
F:   643469----T:   643729 	 St: 8059c000 Sz: 4096 	 Sm: 0 	 T: memcpy_h2d(0.175557)
F:   643605----T:   643865 	 St: 80711000 Sz: 4096 	 Sm: 0 	 T: write_back(0.175557)
F:   643729----T:   643989 	 St: 8059d000 Sz: 4096 	 Sm: 0 	 T: memcpy_h2d(0.175557)
F:   643865----T:   644125 	 St: 80504000 Sz: 4096 	 Sm: 0 	 T: write_back(0.175557)
F:   643989----T:   644249 	 St: 807b7000 Sz: 4096 	 Sm: 0 	 T: memcpy_h2d(0.175557)
F:   644249----T:   644509 	 St: 807b8000 Sz: 4096 	 Sm: 0 	 T: memcpy_h2d(0.175557)
F:   644402----T:   644662 	 St: 80505000 Sz: 4096 	 Sm: 0 	 T: write_back(0.175557)
F:   644509----T:   644769 	 St: 807b9000 Sz: 4096 	 Sm: 0 	 T: memcpy_h2d(0.175557)
F:   644769----T:   645029 	 St: 807ba000 Sz: 4096 	 Sm: 0 	 T: memcpy_h2d(0.175557)
F:   644898----T:   645158 	 St: 80506000 Sz: 4096 	 Sm: 0 	 T: write_back(0.175557)
F:   645029----T:   645289 	 St: 807bb000 Sz: 4096 	 Sm: 0 	 T: memcpy_h2d(0.175557)
F:   645158----T:   645418 	 St: 80712000 Sz: 4096 	 Sm: 0 	 T: write_back(0.175557)
F:   645289----T:   645549 	 St: 807bc000 Sz: 4096 	 Sm: 0 	 T: memcpy_h2d(0.175557)
F:   645418----T:   645678 	 St: 80713000 Sz: 4096 	 Sm: 0 	 T: write_back(0.175557)
F:   645549----T:   645809 	 St: 807bd000 Sz: 4096 	 Sm: 0 	 T: memcpy_h2d(0.175557)
F:   645679----T:   645939 	 St: 80714000 Sz: 4096 	 Sm: 0 	 T: write_back(0.175557)
F:   645809----T:   646069 	 St: 807be000 Sz: 4096 	 Sm: 0 	 T: memcpy_h2d(0.175557)
F:   645939----T:   646199 	 St: 80507000 Sz: 4096 	 Sm: 0 	 T: write_back(0.175557)
F:   646069----T:   646329 	 St: 8024f000 Sz: 4096 	 Sm: 0 	 T: memcpy_h2d(0.175557)
F:   646199----T:   646459 	 St: 80715000 Sz: 4096 	 Sm: 0 	 T: write_back(0.175557)
F:   646329----T:   646589 	 St: 80250000 Sz: 4096 	 Sm: 0 	 T: memcpy_h2d(0.175557)
F:   646459----T:   646719 	 St: 80716000 Sz: 4096 	 Sm: 0 	 T: write_back(0.175557)
F:   646589----T:   646849 	 St: 805a2000 Sz: 4096 	 Sm: 0 	 T: memcpy_h2d(0.175557)
F:   646719----T:   646979 	 St: 8050b000 Sz: 4096 	 Sm: 0 	 T: write_back(0.175557)
F:   646849----T:   647109 	 St: 8059f000 Sz: 4096 	 Sm: 0 	 T: memcpy_h2d(0.175557)
F:   646979----T:   647239 	 St: 8050a000 Sz: 4096 	 Sm: 0 	 T: write_back(0.175557)
F:   647109----T:   647369 	 St: 805a0000 Sz: 4096 	 Sm: 0 	 T: memcpy_h2d(0.175557)
F:   647239----T:   647499 	 St: 8050c000 Sz: 4096 	 Sm: 0 	 T: write_back(0.175557)
F:   647369----T:   647629 	 St: 805a4000 Sz: 4096 	 Sm: 0 	 T: memcpy_h2d(0.175557)
F:   647499----T:   647759 	 St: 80717000 Sz: 4096 	 Sm: 0 	 T: write_back(0.175557)
F:   647629----T:   647889 	 St: 805a3000 Sz: 4096 	 Sm: 0 	 T: memcpy_h2d(0.175557)
F:   647759----T:   648019 	 St: 80508000 Sz: 4096 	 Sm: 0 	 T: write_back(0.175557)
F:   647889----T:   648149 	 St: 8059e000 Sz: 4096 	 Sm: 0 	 T: memcpy_h2d(0.175557)
F:   648019----T:   648279 	 St: 80509000 Sz: 4096 	 Sm: 0 	 T: write_back(0.175557)
F:   648149----T:   648409 	 St: 805a1000 Sz: 4096 	 Sm: 0 	 T: memcpy_h2d(0.175557)
F:   648279----T:   648539 	 St: 8050d000 Sz: 4096 	 Sm: 0 	 T: write_back(0.175557)
F:   648409----T:   648669 	 St: 805a5000 Sz: 4096 	 Sm: 0 	 T: memcpy_h2d(0.175557)
F:   648539----T:   648799 	 St: 8050e000 Sz: 4096 	 Sm: 0 	 T: write_back(0.175557)
F:   648669----T:   648929 	 St: 805a6000 Sz: 4096 	 Sm: 0 	 T: memcpy_h2d(0.175557)
F:   648799----T:   649059 	 St: 8071b000 Sz: 4096 	 Sm: 0 	 T: write_back(0.175557)
F:   648929----T:   649189 	 St: 80251000 Sz: 4096 	 Sm: 0 	 T: memcpy_h2d(0.175557)
F:   649059----T:   649319 	 St: 8071c000 Sz: 4096 	 Sm: 0 	 T: write_back(0.175557)
F:   649189----T:   649449 	 St: 805a7000 Sz: 4096 	 Sm: 0 	 T: memcpy_h2d(0.175557)
F:   649319----T:   649579 	 St: 80718000 Sz: 4096 	 Sm: 0 	 T: write_back(0.175557)
F:   649449----T:   649709 	 St: 805a8000 Sz: 4096 	 Sm: 0 	 T: memcpy_h2d(0.175557)
F:   649579----T:   649839 	 St: 8050f000 Sz: 4096 	 Sm: 0 	 T: write_back(0.175557)
F:   649709----T:   649969 	 St: 805a9000 Sz: 4096 	 Sm: 0 	 T: memcpy_h2d(0.175557)
F:   649839----T:   650099 	 St: 8071a000 Sz: 4096 	 Sm: 0 	 T: write_back(0.175557)
F:   649969----T:   650229 	 St: 805aa000 Sz: 4096 	 Sm: 0 	 T: memcpy_h2d(0.175557)
F:   650099----T:   650359 	 St: 80511000 Sz: 4096 	 Sm: 0 	 T: write_back(0.175557)
F:   650229----T:   650489 	 St: 805ab000 Sz: 4096 	 Sm: 0 	 T: memcpy_h2d(0.175557)
F:   650359----T:   650619 	 St: 80510000 Sz: 4096 	 Sm: 0 	 T: write_back(0.175557)
F:   650489----T:   650749 	 St: 805ac000 Sz: 4096 	 Sm: 0 	 T: memcpy_h2d(0.175557)
F:   650619----T:   650879 	 St: 8071d000 Sz: 4096 	 Sm: 0 	 T: write_back(0.175557)
F:   650749----T:   651009 	 St: 805ad000 Sz: 4096 	 Sm: 0 	 T: memcpy_h2d(0.175557)
F:   650879----T:   651139 	 St: 80719000 Sz: 4096 	 Sm: 0 	 T: write_back(0.175557)
F:   651009----T:   651269 	 St: 805ae000 Sz: 4096 	 Sm: 0 	 T: memcpy_h2d(0.175557)
F:   651139----T:   651399 	 St: 8071e000 Sz: 4096 	 Sm: 0 	 T: write_back(0.175557)
F:   651269----T:   651529 	 St: 807c2000 Sz: 4096 	 Sm: 0 	 T: memcpy_h2d(0.175557)
F:   651399----T:   651659 	 St: 80512000 Sz: 4096 	 Sm: 0 	 T: write_back(0.175557)
F:   651529----T:   651789 	 St: 807c0000 Sz: 4096 	 Sm: 0 	 T: memcpy_h2d(0.175557)
F:   651659----T:   651919 	 St: 8071f000 Sz: 4096 	 Sm: 0 	 T: write_back(0.175557)
F:   651789----T:   652049 	 St: 807c6000 Sz: 4096 	 Sm: 0 	 T: memcpy_h2d(0.175557)
F:   651919----T:   652179 	 St: 80513000 Sz: 4096 	 Sm: 0 	 T: write_back(0.175557)
F:   652049----T:   652309 	 St: 807c8000 Sz: 4096 	 Sm: 0 	 T: memcpy_h2d(0.175557)
F:   652179----T:   652439 	 St: 80514000 Sz: 4096 	 Sm: 0 	 T: write_back(0.175557)
F:   652309----T:   652569 	 St: 807c7000 Sz: 4096 	 Sm: 0 	 T: memcpy_h2d(0.175557)
F:   652439----T:   652699 	 St: 80721000 Sz: 4096 	 Sm: 0 	 T: write_back(0.175557)
F:   652569----T:   652829 	 St: 807c9000 Sz: 4096 	 Sm: 0 	 T: memcpy_h2d(0.175557)
F:   652699----T:   652959 	 St: 80720000 Sz: 4096 	 Sm: 0 	 T: write_back(0.175557)
F:   652829----T:   653089 	 St: 807c1000 Sz: 4096 	 Sm: 0 	 T: memcpy_h2d(0.175557)
F:   652959----T:   653219 	 St: 80515000 Sz: 4096 	 Sm: 0 	 T: write_back(0.175557)
F:   653089----T:   653349 	 St: 807c4000 Sz: 4096 	 Sm: 0 	 T: memcpy_h2d(0.175557)
F:   653219----T:   653479 	 St: 80722000 Sz: 4096 	 Sm: 0 	 T: write_back(0.175557)
F:   653349----T:   653609 	 St: 807bf000 Sz: 4096 	 Sm: 0 	 T: memcpy_h2d(0.175557)
F:   653479----T:   653739 	 St: 80724000 Sz: 4096 	 Sm: 0 	 T: write_back(0.175557)
F:   653609----T:   653869 	 St: 807ca000 Sz: 4096 	 Sm: 0 	 T: memcpy_h2d(0.175557)
F:   653739----T:   653999 	 St: 80723000 Sz: 4096 	 Sm: 0 	 T: write_back(0.175557)
F:   653869----T:   654129 	 St: 807c5000 Sz: 4096 	 Sm: 0 	 T: memcpy_h2d(0.175557)
F:   653999----T:   654259 	 St: 80516000 Sz: 4096 	 Sm: 0 	 T: write_back(0.175557)
F:   654129----T:   654389 	 St: 807cc000 Sz: 4096 	 Sm: 0 	 T: memcpy_h2d(0.175557)
F:   654259----T:   654519 	 St: 80518000 Sz: 4096 	 Sm: 0 	 T: write_back(0.175557)
F:   654389----T:   654649 	 St: 807c3000 Sz: 4096 	 Sm: 0 	 T: memcpy_h2d(0.175557)
F:   654519----T:   654779 	 St: 80725000 Sz: 4096 	 Sm: 0 	 T: write_back(0.175557)
F:   654649----T:   654909 	 St: 807cf000 Sz: 4096 	 Sm: 0 	 T: memcpy_h2d(0.175557)
F:   654779----T:   655039 	 St: 80517000 Sz: 4096 	 Sm: 0 	 T: write_back(0.175557)
F:   654909----T:   655169 	 St: 807cd000 Sz: 4096 	 Sm: 0 	 T: memcpy_h2d(0.175557)
F:   655039----T:   655299 	 St: 80726000 Sz: 4096 	 Sm: 0 	 T: write_back(0.175557)
F:   655169----T:   655429 	 St: 807cb000 Sz: 4096 	 Sm: 0 	 T: memcpy_h2d(0.175557)
F:   655299----T:   655559 	 St: 80728000 Sz: 4096 	 Sm: 0 	 T: write_back(0.175557)
F:   655429----T:   655689 	 St: 807ce000 Sz: 4096 	 Sm: 0 	 T: memcpy_h2d(0.175557)
F:   655559----T:   655819 	 St: 80519000 Sz: 4096 	 Sm: 0 	 T: write_back(0.175557)
F:   655689----T:   655949 	 St: 807da000 Sz: 4096 	 Sm: 0 	 T: memcpy_h2d(0.175557)
F:   655819----T:   656079 	 St: 80727000 Sz: 4096 	 Sm: 0 	 T: write_back(0.175557)
F:   655949----T:   656209 	 St: 807d6000 Sz: 4096 	 Sm: 0 	 T: memcpy_h2d(0.175557)
F:   656079----T:   656339 	 St: 8051b000 Sz: 4096 	 Sm: 0 	 T: write_back(0.175557)
F:   656209----T:   656469 	 St: 807d1000 Sz: 4096 	 Sm: 0 	 T: memcpy_h2d(0.175557)
F:   656339----T:   656599 	 St: 8051a000 Sz: 4096 	 Sm: 0 	 T: write_back(0.175557)
F:   656469----T:   656729 	 St: 807d4000 Sz: 4096 	 Sm: 0 	 T: memcpy_h2d(0.175557)
F:   656599----T:   656859 	 St: 8051c000 Sz: 4096 	 Sm: 0 	 T: write_back(0.175557)
F:   656729----T:   656989 	 St: 807d3000 Sz: 4096 	 Sm: 0 	 T: memcpy_h2d(0.175557)
F:   656859----T:   657119 	 St: 80729000 Sz: 4096 	 Sm: 0 	 T: write_back(0.175557)
F:   656989----T:   657249 	 St: 807d9000 Sz: 4096 	 Sm: 0 	 T: memcpy_h2d(0.175557)
F:   657119----T:   657379 	 St: 8072b000 Sz: 4096 	 Sm: 0 	 T: write_back(0.175557)
F:   657249----T:   657509 	 St: 807d8000 Sz: 4096 	 Sm: 0 	 T: memcpy_h2d(0.175557)
F:   657379----T:   657639 	 St: 8051d000 Sz: 4096 	 Sm: 0 	 T: write_back(0.175557)
F:   657509----T:   657769 	 St: 807dc000 Sz: 4096 	 Sm: 0 	 T: memcpy_h2d(0.175557)
F:   657639----T:   657899 	 St: 8072a000 Sz: 4096 	 Sm: 0 	 T: write_back(0.175557)
F:   657769----T:   658029 	 St: 807d2000 Sz: 4096 	 Sm: 0 	 T: memcpy_h2d(0.175557)
F:   657899----T:   658159 	 St: 8072c000 Sz: 4096 	 Sm: 0 	 T: write_back(0.175557)
F:   658029----T:   658289 	 St: 807d5000 Sz: 4096 	 Sm: 0 	 T: memcpy_h2d(0.175557)
F:   658159----T:   658419 	 St: 8072d000 Sz: 4096 	 Sm: 0 	 T: write_back(0.175557)
F:   658289----T:   658549 	 St: 807d0000 Sz: 4096 	 Sm: 0 	 T: memcpy_h2d(0.175557)
F:   658419----T:   658679 	 St: 8051e000 Sz: 4096 	 Sm: 0 	 T: write_back(0.175557)
F:   658549----T:   658809 	 St: 807d7000 Sz: 4096 	 Sm: 0 	 T: memcpy_h2d(0.175557)
F:   658679----T:   658939 	 St: 8051f000 Sz: 4096 	 Sm: 0 	 T: write_back(0.175557)
F:   658809----T:   659069 	 St: 807db000 Sz: 4096 	 Sm: 0 	 T: memcpy_h2d(0.175557)
F:   658939----T:   659199 	 St: 8072e000 Sz: 4096 	 Sm: 0 	 T: write_back(0.175557)
F:   659069----T:   659329 	 St: 807de000 Sz: 4096 	 Sm: 0 	 T: memcpy_h2d(0.175557)
F:   659199----T:   659459 	 St: 80520000 Sz: 4096 	 Sm: 0 	 T: write_back(0.175557)
F:   659329----T:   659589 	 St: 807dd000 Sz: 4096 	 Sm: 0 	 T: memcpy_h2d(0.175557)
F:   659459----T:   659719 	 St: 8072f000 Sz: 4096 	 Sm: 0 	 T: write_back(0.175557)
F:   659589----T:   659849 	 St: 807df000 Sz: 4096 	 Sm: 0 	 T: memcpy_h2d(0.175557)
F:   659719----T:   659979 	 St: 80730000 Sz: 4096 	 Sm: 0 	 T: write_back(0.175557)
F:   659849----T:   660109 	 St: 807e0000 Sz: 4096 	 Sm: 0 	 T: memcpy_h2d(0.175557)
F:   659979----T:   660239 	 St: 80521000 Sz: 4096 	 Sm: 0 	 T: write_back(0.175557)
F:   660109----T:   660369 	 St: 807e8000 Sz: 4096 	 Sm: 0 	 T: memcpy_h2d(0.175557)
F:   660239----T:   660499 	 St: 80522000 Sz: 4096 	 Sm: 0 	 T: write_back(0.175557)
F:   660369----T:   660629 	 St: 807e9000 Sz: 4096 	 Sm: 0 	 T: memcpy_h2d(0.175557)
F:   660499----T:   660759 	 St: 80731000 Sz: 4096 	 Sm: 0 	 T: write_back(0.175557)
F:   660629----T:   660889 	 St: 807e1000 Sz: 4096 	 Sm: 0 	 T: memcpy_h2d(0.175557)
F:   660759----T:   661019 	 St: 80732000 Sz: 4096 	 Sm: 0 	 T: write_back(0.175557)
F:   660889----T:   661149 	 St: 807e3000 Sz: 4096 	 Sm: 0 	 T: memcpy_h2d(0.175557)
F:   661019----T:   661279 	 St: 80523000 Sz: 4096 	 Sm: 0 	 T: write_back(0.175557)
F:   661149----T:   661409 	 St: 807e2000 Sz: 4096 	 Sm: 0 	 T: memcpy_h2d(0.175557)
F:   661279----T:   661539 	 St: 80733000 Sz: 4096 	 Sm: 0 	 T: write_back(0.175557)
F:   661409----T:   661669 	 St: 807ea000 Sz: 4096 	 Sm: 0 	 T: memcpy_h2d(0.175557)
F:   661539----T:   661799 	 St: 80524000 Sz: 4096 	 Sm: 0 	 T: write_back(0.175557)
F:   661669----T:   661929 	 St: 807e4000 Sz: 4096 	 Sm: 0 	 T: memcpy_h2d(0.175557)
F:   661799----T:   662059 	 St: 80525000 Sz: 4096 	 Sm: 0 	 T: write_back(0.175557)
F:   661929----T:   662189 	 St: 807e7000 Sz: 4096 	 Sm: 0 	 T: memcpy_h2d(0.175557)
F:   662059----T:   662319 	 St: 80734000 Sz: 4096 	 Sm: 0 	 T: write_back(0.175557)
F:   662189----T:   662449 	 St: 807e5000 Sz: 4096 	 Sm: 0 	 T: memcpy_h2d(0.175557)
F:   662319----T:   662579 	 St: 80526000 Sz: 4096 	 Sm: 0 	 T: write_back(0.175557)
F:   662449----T:   662709 	 St: 807e6000 Sz: 4096 	 Sm: 0 	 T: memcpy_h2d(0.175557)
F:   662579----T:   662839 	 St: 80735000 Sz: 4096 	 Sm: 0 	 T: write_back(0.175557)
F:   662709----T:   662969 	 St: 805b2000 Sz: 4096 	 Sm: 0 	 T: memcpy_h2d(0.175557)
F:   662839----T:   663099 	 St: 80736000 Sz: 4096 	 Sm: 0 	 T: write_back(0.175557)
F:   662969----T:   663229 	 St: 805b0000 Sz: 4096 	 Sm: 0 	 T: memcpy_h2d(0.175557)
F:   663099----T:   663359 	 St: 80527000 Sz: 4096 	 Sm: 0 	 T: write_back(0.175557)
F:   663229----T:   663489 	 St: 805b6000 Sz: 4096 	 Sm: 0 	 T: memcpy_h2d(0.175557)
F:   663359----T:   663619 	 St: 80737000 Sz: 4096 	 Sm: 0 	 T: write_back(0.175557)
F:   663489----T:   663749 	 St: 805b8000 Sz: 4096 	 Sm: 0 	 T: memcpy_h2d(0.175557)
F:   663619----T:   663879 	 St: 80528000 Sz: 4096 	 Sm: 0 	 T: write_back(0.175557)
F:   663749----T:   664009 	 St: 805b7000 Sz: 4096 	 Sm: 0 	 T: memcpy_h2d(0.175557)
F:   663879----T:   664139 	 St: 80738000 Sz: 4096 	 Sm: 0 	 T: write_back(0.175557)
F:   664009----T:   664269 	 St: 805b9000 Sz: 4096 	 Sm: 0 	 T: memcpy_h2d(0.175557)
F:   664139----T:   664399 	 St: 80529000 Sz: 4096 	 Sm: 0 	 T: write_back(0.175557)
F:   664269----T:   664529 	 St: 805b1000 Sz: 4096 	 Sm: 0 	 T: memcpy_h2d(0.175557)
F:   664399----T:   664659 	 St: 80739000 Sz: 4096 	 Sm: 0 	 T: write_back(0.175557)
F:   664529----T:   664789 	 St: 805b4000 Sz: 4096 	 Sm: 0 	 T: memcpy_h2d(0.175557)
F:   664659----T:   664919 	 St: 8052a000 Sz: 4096 	 Sm: 0 	 T: write_back(0.175557)
F:   664789----T:   665049 	 St: 805af000 Sz: 4096 	 Sm: 0 	 T: memcpy_h2d(0.175557)
F:   664919----T:   665179 	 St: 8073a000 Sz: 4096 	 Sm: 0 	 T: write_back(0.175557)
F:   665049----T:   665309 	 St: 805ba000 Sz: 4096 	 Sm: 0 	 T: memcpy_h2d(0.175557)
F:   665179----T:   665439 	 St: 8052b000 Sz: 4096 	 Sm: 0 	 T: write_back(0.175557)
F:   665309----T:   665569 	 St: 805b5000 Sz: 4096 	 Sm: 0 	 T: memcpy_h2d(0.175557)
F:   665439----T:   665699 	 St: 8073b000 Sz: 4096 	 Sm: 0 	 T: write_back(0.175557)
F:   665569----T:   665829 	 St: 805bc000 Sz: 4096 	 Sm: 0 	 T: memcpy_h2d(0.175557)
F:   665699----T:   665959 	 St: 8052c000 Sz: 4096 	 Sm: 0 	 T: write_back(0.175557)
F:   665829----T:   666089 	 St: 805b3000 Sz: 4096 	 Sm: 0 	 T: memcpy_h2d(0.175557)
F:   665959----T:   666219 	 St: 8073c000 Sz: 4096 	 Sm: 0 	 T: write_back(0.175557)
F:   666089----T:   666349 	 St: 805bf000 Sz: 4096 	 Sm: 0 	 T: memcpy_h2d(0.175557)
F:   666219----T:   666479 	 St: 8052d000 Sz: 4096 	 Sm: 0 	 T: write_back(0.175557)
F:   666349----T:   666609 	 St: 805bd000 Sz: 4096 	 Sm: 0 	 T: memcpy_h2d(0.175557)
F:   666479----T:   666739 	 St: 8073d000 Sz: 4096 	 Sm: 0 	 T: write_back(0.175557)
F:   666609----T:   666869 	 St: 805bb000 Sz: 4096 	 Sm: 0 	 T: memcpy_h2d(0.175557)
F:   666739----T:   666999 	 St: 8052e000 Sz: 4096 	 Sm: 0 	 T: write_back(0.175557)
F:   666869----T:   667129 	 St: 805be000 Sz: 4096 	 Sm: 0 	 T: memcpy_h2d(0.175557)
F:   666999----T:   667259 	 St: 8073e000 Sz: 4096 	 Sm: 0 	 T: write_back(0.175557)
F:   667129----T:   667389 	 St: 805ca000 Sz: 4096 	 Sm: 0 	 T: memcpy_h2d(0.175557)
F:   667259----T:   667519 	 St: 8052f000 Sz: 4096 	 Sm: 0 	 T: write_back(0.175557)
F:   667389----T:   667649 	 St: 805c6000 Sz: 4096 	 Sm: 0 	 T: memcpy_h2d(0.175557)
F:   667519----T:   667779 	 St: 8073f000 Sz: 4096 	 Sm: 0 	 T: write_back(0.175557)
F:   667649----T:   667909 	 St: 805c1000 Sz: 4096 	 Sm: 0 	 T: memcpy_h2d(0.175557)
F:   667779----T:   668039 	 St: 80530000 Sz: 4096 	 Sm: 0 	 T: write_back(0.175557)
F:   667909----T:   668169 	 St: 805c4000 Sz: 4096 	 Sm: 0 	 T: memcpy_h2d(0.175557)
F:   668039----T:   668299 	 St: 80740000 Sz: 4096 	 Sm: 0 	 T: write_back(0.175557)
F:   668169----T:   668429 	 St: 805c3000 Sz: 4096 	 Sm: 0 	 T: memcpy_h2d(0.175557)
F:   668299----T:   668559 	 St: 80531000 Sz: 4096 	 Sm: 0 	 T: write_back(0.175557)
F:   668429----T:   668689 	 St: 805c9000 Sz: 4096 	 Sm: 0 	 T: memcpy_h2d(0.175557)
F:   668559----T:   668819 	 St: 80741000 Sz: 4096 	 Sm: 0 	 T: write_back(0.175557)
F:   668689----T:   668949 	 St: 805c8000 Sz: 4096 	 Sm: 0 	 T: memcpy_h2d(0.175557)
F:   668819----T:   669079 	 St: 80532000 Sz: 4096 	 Sm: 0 	 T: write_back(0.175557)
F:   668949----T:   669209 	 St: 805cc000 Sz: 4096 	 Sm: 0 	 T: memcpy_h2d(0.175557)
F:   669209----T:   669469 	 St: 805c2000 Sz: 4096 	 Sm: 0 	 T: memcpy_h2d(0.175557)
F:   669469----T:   669729 	 St: 805c5000 Sz: 4096 	 Sm: 0 	 T: memcpy_h2d(0.175557)
F:   669729----T:   669989 	 St: 805c0000 Sz: 4096 	 Sm: 0 	 T: memcpy_h2d(0.175557)
F:   669989----T:   670249 	 St: 805c7000 Sz: 4096 	 Sm: 0 	 T: memcpy_h2d(0.175557)
F:   670249----T:   670509 	 St: 805cb000 Sz: 4096 	 Sm: 0 	 T: memcpy_h2d(0.175557)
F:   670509----T:   670769 	 St: 805ce000 Sz: 4096 	 Sm: 0 	 T: memcpy_h2d(0.175557)
F:   670769----T:   671029 	 St: 805cd000 Sz: 4096 	 Sm: 0 	 T: memcpy_h2d(0.175557)
F:   671029----T:   671289 	 St: 805cf000 Sz: 4096 	 Sm: 0 	 T: memcpy_h2d(0.175557)
F:   671289----T:   671549 	 St: 805d0000 Sz: 4096 	 Sm: 0 	 T: memcpy_h2d(0.175557)
F:   671549----T:   671809 	 St: 805d8000 Sz: 4096 	 Sm: 0 	 T: memcpy_h2d(0.175557)
F:   671809----T:   672069 	 St: 805d9000 Sz: 4096 	 Sm: 0 	 T: memcpy_h2d(0.175557)
F:   672069----T:   672329 	 St: 805d1000 Sz: 4096 	 Sm: 0 	 T: memcpy_h2d(0.175557)
F:   672329----T:   672589 	 St: 805d3000 Sz: 4096 	 Sm: 0 	 T: memcpy_h2d(0.175557)
F:   672589----T:   672849 	 St: 805d2000 Sz: 4096 	 Sm: 0 	 T: memcpy_h2d(0.175557)
F:   672849----T:   673109 	 St: 805da000 Sz: 4096 	 Sm: 0 	 T: memcpy_h2d(0.175557)
F:   673109----T:   673369 	 St: 805d4000 Sz: 4096 	 Sm: 0 	 T: memcpy_h2d(0.175557)
F:   673369----T:   673629 	 St: 805d7000 Sz: 4096 	 Sm: 0 	 T: memcpy_h2d(0.175557)
F:   673629----T:   673889 	 St: 805d5000 Sz: 4096 	 Sm: 0 	 T: memcpy_h2d(0.175557)
F:   673889----T:   674149 	 St: 805d6000 Sz: 4096 	 Sm: 0 	 T: memcpy_h2d(0.175557)
F:   675175----T:   675435 	 St: 0 Sz: 4096 	 Sm: 0 	 T: device_sync(0.175557)
F:   675175----T:   675999 	 St: 0 Sz: 61440 	 Sm: 0 	 T: device_sync(0.556381)
F:   676259----T:   676519 	 St: 0 Sz: 4096 	 Sm: 0 	 T: device_sync(0.175557)
F:   676259----T:   677083 	 St: 0 Sz: 61440 	 Sm: 0 	 T: device_sync(0.556381)
F:   677343----T:   677603 	 St: 0 Sz: 4096 	 Sm: 0 	 T: device_sync(0.175557)
F:   677343----T:   678912 	 St: 0 Sz: 126976 	 Sm: 0 	 T: device_sync(1.059419)
F:   679172----T:   679432 	 St: 0 Sz: 4096 	 Sm: 0 	 T: device_sync(0.175557)
F:   679172----T:   682244 	 St: 0 Sz: 258048 	 Sm: 0 	 T: device_sync(2.074274)
F:   682504----T:   682764 	 St: 0 Sz: 4096 	 Sm: 0 	 T: device_sync(0.175557)
F:   682504----T:   688587 	 St: 0 Sz: 520192 	 Sm: 0 	 T: device_sync(4.107360)
F:   688847----T:   689107 	 St: 0 Sz: 4096 	 Sm: 0 	 T: device_sync(0.175557)
F:   688847----T:   692718 	 St: 0 Sz: 327680 	 Sm: 0 	 T: device_sync(2.613775)
Tot_prefetch_time: 0(cycle), 0.000000(us)
Tot_kernel_exec_time: 214012(cycle), 144.505066(us)
Tot_kernel_exec_time_and_fault_time: 41333977(cycle), 27909.503906(us)
Tot_memcpy_h2d_time: 187256(cycle), 126.438896(us)
Tot_memcpy_d2h_time: 0(cycle), 0.000000(us)
Tot_memcpy_time: 187256(cycle), 126.438896(us)
Tot_devicesync_time: 34666(cycle), 23.407158(us)
Tot_writeback_time: 67860(cycle), 45.820393(us)
Tot_rdma_time: 0(cycle), 0.000000(us)
Tot_memcpy_d2h_sync_wb_time: 102526(cycle), 69.227547(us)
GPGPU-Sim: *** exit detected ***
