

        *** GPGPU-Sim Simulator Version 3.2.2  [build gpgpu-sim_git-commit-192e696560217fbde0ca32c0b7f1cb04a8d61fd3_modified_1] ***


GPGPU-Sim PTX: simulation mode 0 (can change with PTX_SIM_MODE_FUNC environment variable:
               1=functional simulation only, 0=detailed performance simulator)
GPGPU-Sim: Configuration options:

-network_mode                           1 # Interconnection network mode
-inter_config_file   config_fermi_islip.icnt # Interconnection network config file
-gpgpu_ptx_use_cuobjdump                    1 # Use cuobjdump to extract ptx and sass from binaries
-gpgpu_experimental_lib_support                    0 # Try to extract code from cuda libraries [Broken because of unknown cudaGetExportTable]
-gpgpu_ptx_convert_to_ptxplus                    0 # Convert SASS (native ISA) to ptxplus and run ptxplus
-gpgpu_ptx_force_max_capability                   20 # Force maximum compute capability
-gpgpu_ptx_inst_debug_to_file                    0 # Dump executed instructions' debug information to file
-gpgpu_ptx_inst_debug_file       inst_debug.txt # Executed instructions' debug output file
-gpgpu_ptx_inst_debug_thread_uid                    1 # Thread UID for executed instructions' debug output
-gpgpu_simd_model                       1 # 1 = post-dominator
-gpgpu_shader_core_pipeline              2048:32 # shader core pipeline config, i.e., {<nthread>:<warpsize>}
-gpgpu_tex_cache:l1  16:128:24,L:R:m:N:L,F:128:4,128:2 # per-shader L1 texture cache  (READ-ONLY) config  {<nsets>:<bsize>:<assoc>,<rep>:<wr>:<alloc>:<wr_alloc>,<mshr>:<N>:<merge>,<mq>:<rf>}
-gpgpu_const_cache:l1 128:64:2,L:R:f:N:L,A:2:64,4 # per-shader L1 constant memory cache  (READ-ONLY) config  {<nsets>:<bsize>:<assoc>,<rep>:<wr>:<alloc>:<wr_alloc>,<mshr>:<N>:<merge>,<mq>} 
-gpgpu_cache:il1     8:128:4,L:R:f:N:L,A:2:48,4 # shader L1 instruction cache config  {<nsets>:<bsize>:<assoc>,<rep>:<wr>:<alloc>:<wr_alloc>,<mshr>:<N>:<merge>,<mq>} 
-gpgpu_cache:dl1     64:128:6,L:L:m:N:H,A:128:8,8 # per-shader L1 data cache config  {<nsets>:<bsize>:<assoc>,<rep>:<wr>:<alloc>:<wr_alloc>,<mshr>:<N>:<merge>,<mq> | none}
-gpgpu_cache:dl1PrefL1                 none # per-shader L1 data cache config  {<nsets>:<bsize>:<assoc>,<rep>:<wr>:<alloc>:<wr_alloc>,<mshr>:<N>:<merge>,<mq> | none}
-gpgpu_cache:dl1PrefShared                 none # per-shader L1 data cache config  {<nsets>:<bsize>:<assoc>,<rep>:<wr>:<alloc>:<wr_alloc>,<mshr>:<N>:<merge>,<mq> | none}
-gmem_skip_L1D                          1 # global memory access skip L1D cache (implements -Xptxas -dlcm=cg, default=no skip)
-gpgpu_perfect_mem                      0 # enable perfect memory mode (no cache miss)
-n_regfile_gating_group                    4 # group of lanes that should be read/written together)
-gpgpu_clock_gated_reg_file                    0 # enable clock gated reg file for power calculations
-gpgpu_clock_gated_lanes                    0 # enable clock gated lanes for power calculations
-gpgpu_shader_registers                65536 # Number of registers per shader core. Limits number of concurrent CTAs. (default 8192)
-gpgpu_shader_cta                      32 # Maximum number of concurrent CTAs in shader (default 8)
-gpgpu_num_cta_barriers                   16 # Maximum number of named barriers per CTA (default 16)
-gpgpu_n_clusters                      28 # number of processing clusters
-gpgpu_n_cores_per_cluster                    1 # number of simd cores per cluster
-gpgpu_n_cluster_ejection_buffer_size                    8 # number of packets in ejection buffer
-gpgpu_n_ldst_response_buffer_size                    2 # number of response packets in ld/st unit ejection buffer
-gpgpu_shmem_size                   16384 # Size of shared memory per shader core (default 16kB)
-gpgpu_shmem_size                   98304 # Size of shared memory per shader core (default 16kB)
-gpgpu_shmem_size_PrefL1                16384 # Size of shared memory per shader core (default 16kB)
-gpgpu_shmem_size_PrefShared                16384 # Size of shared memory per shader core (default 16kB)
-gpgpu_shmem_num_banks                   32 # Number of banks in the shared memory in each shader core (default 16)
-gpgpu_shmem_limited_broadcast                    0 # Limit shared memory to do one broadcast per cycle (default on)
-gpgpu_shmem_warp_parts                    1 # Number of portions a warp is divided into for shared memory bank conflict check 
-gpgpu_warpdistro_shader                   -1 # Specify which shader core to collect the warp size distribution from
-gpgpu_warp_issue_shader                    0 # Specify which shader core to collect the warp issue distribution from
-gpgpu_local_mem_map                    1 # Mapping from local memory space address to simulated GPU physical address space (default = enabled)
-gpgpu_num_reg_banks                   32 # Number of register banks (default = 8)
-gpgpu_reg_bank_use_warp_id                    0 # Use warp ID in mapping registers to banks (default = off)
-gpgpu_operand_collector_num_units_sp                   20 # number of collector units (default = 4)
-gpgpu_operand_collector_num_units_sfu                    4 # number of collector units (default = 4)
-gpgpu_operand_collector_num_units_mem                    8 # number of collector units (default = 2)
-gpgpu_operand_collector_num_units_gen                    0 # number of collector units (default = 0)
-gpgpu_operand_collector_num_in_ports_sp                    4 # number of collector unit in ports (default = 1)
-gpgpu_operand_collector_num_in_ports_sfu                    1 # number of collector unit in ports (default = 1)
-gpgpu_operand_collector_num_in_ports_mem                    1 # number of collector unit in ports (default = 1)
-gpgpu_operand_collector_num_in_ports_gen                    0 # number of collector unit in ports (default = 0)
-gpgpu_operand_collector_num_out_ports_sp                    4 # number of collector unit in ports (default = 1)
-gpgpu_operand_collector_num_out_ports_sfu                    1 # number of collector unit in ports (default = 1)
-gpgpu_operand_collector_num_out_ports_mem                    1 # number of collector unit in ports (default = 1)
-gpgpu_operand_collector_num_out_ports_gen                    0 # number of collector unit in ports (default = 0)
-gpgpu_coalesce_arch                   13 # Coalescing arch (default = 13, anything else is off for now)
-gpgpu_num_sched_per_core                    2 # Number of warp schedulers per core
-gpgpu_max_insn_issue_per_warp                    2 # Max number of instructions that can be issued per warp in one cycle by scheduler
-gpgpu_simt_core_sim_order                    1 # Select the simulation order of cores in a cluster (0=Fix, 1=Round-Robin)
-gpgpu_pipeline_widths        4,1,1,4,1,1,6 # Pipeline widths ID_OC_SP,ID_OC_SFU,ID_OC_MEM,OC_EX_SP,OC_EX_SFU,OC_EX_MEM,EX_WB
-gpgpu_num_sp_units                     4 # Number of SP units (default=1)
-gpgpu_num_sfu_units                    1 # Number of SF units (default=1)
-gpgpu_num_mem_units                    1 # Number if ldst units (default=1) WARNING: not hooked up to anything
-gpgpu_scheduler                      gto # Scheduler configuration: < lrr | gto | two_level_active > If two_level_active:<num_active_warps>:<inner_prioritization>:<outer_prioritization>For complete list of prioritization values see shader.h enum scheduler_prioritization_typeDefault: gto
-gpgpu_concurrent_kernel_sm                    0 # Support concurrent kernels on a SM (default = disabled)
-tlb_size                            4096 # Number of tlb entries per SM.
-gpgpu_dram_scheduler                    1 # 0 = fifo, 1 = FR-FCFS (defaul)
-gpgpu_dram_partition_queues              8:8:8:8 # i2$:$2d:d2$:$2i
-l2_ideal                               0 # Use a ideal L2 cache that always hit
-gpgpu_cache:dl2     64:128:16,L:B:m:W:L,A:1024:1024,4:0,32 # unified banked L2 data cache config  {<nsets>:<bsize>:<assoc>,<rep>:<wr>:<alloc>:<wr_alloc>,<mshr>:<N>:<merge>,<mq>}
-gpgpu_cache:dl2_texture_only                    0 # L2 cache used for texture only
-gpgpu_n_mem                           11 # number of memory modules (e.g. memory controllers) in gpu
-gpgpu_n_sub_partition_per_mchannel                    2 # number of memory subpartition in each memory module
-gpgpu_n_mem_per_ctrlr                    1 # number of memory chips per memory controller
-gpgpu_memlatency_stat                   14 # track and display latency statistics 0x2 enables MC, 0x4 enables queue logs
-gpgpu_frfcfs_dram_sched_queue_size                   64 # 0 = unlimited (default); # entries per chip
-gpgpu_dram_return_queue_size                  116 # 0 = unlimited (default); # entries per chip
-gpgpu_dram_buswidth                    4 # default = 4 bytes (8 bytes per cycle at DDR)
-gpgpu_dram_burst_length                    8 # Burst length of each DRAM request (default = 4 data bus cycle)
-dram_data_command_freq_ratio                    4 # Frequency ratio between DRAM data bus and command bus (default = 2 times, i.e. DDR)
-gpgpu_dram_timing_opt nbk=16:CCD=2:RRD=6:RCD=12:RAS=28:RP=12:RC=40: CL=12:WL=4:CDLR=5:WR=12:nbkgrp=1:CCDL=0:RTPL=0 # DRAM timing parameters = {nbk:tCCD:tRRD:tRCD:tRAS:tRP:tRC:CL:WL:tCDLR:tWR:nbkgrp:tCCDL:tRTPL}
-rop_latency                          120 # ROP queue latency (default 85)
-dram_latency                         100 # DRAM latency (default 30)
-gpgpu_mem_addr_mapping dramid@8;00000000.00000000.00000000.00000000.0000RRRR.RRRRRRRR.RBBBCCCC.BCCSSSSS # mapping memory address to dram model {dramid@<start bit>;<memory address map>}
-gpgpu_mem_addr_test                    0 # run sweep test to check address mapping for aliased address
-gpgpu_mem_address_mask                    1 # 0 = old addressing mask, 1 = new addressing mask, 2 = new add. mask + flipped bank sel and chip sel bits
-gpuwattch_xml_file  gpuwattch_geforcegtx1080ti.xml # GPUWattch XML file
-power_simulation_enabled                    1 # Turn on power simulator (1=On, 0=Off)
-power_per_cycle_dump                    0 # Dump detailed power output each cycle
-power_trace_enabled                    0 # produce a file for the power trace (1=On, 0=Off)
-power_trace_zlevel                     6 # Compression level of the power trace output log (0=no comp, 9=highest)
-steady_power_levels_enabled                    0 # produce a file for the steady power levels (1=On, 0=Off)
-steady_state_definition                  8:4 # allowed deviation:number of samples
-gpgpu_max_cycle                        0 # terminates gpu simulation early (0 = no limit)
-gpgpu_max_insn                         0 # terminates gpu simulation early (0 = no limit)
-gpgpu_max_cta                          0 # terminates gpu simulation early (0 = no limit)
-gpgpu_runtime_stat                   500 # display runtime statistics such as dram utilization {<freq>:<flag>}
-liveness_message_freq                    1 # Minimum number of seconds between simulation liveness messages (0 = always print)
-gpgpu_flush_l1_cache                    0 # Flush L1 cache at the end of each kernel call
-gpgpu_flush_l2_cache                    0 # Flush L2 cache at the end of each kernel call
-gpgpu_deadlock_detect                    0 # Stop the simulation at deadlock (1=on (default), 0=off)
-gpgpu_ptx_instruction_classification                    0 # if enabled will classify ptx instruction types per kernel (Max 255 kernels now)
-gpgpu_ptx_sim_mode                     0 # Select between Performance (default) or Functional simulation (1)
-gpgpu_clock_domains 1481.0:2962.0:1481.0:2750.0 # Clock Domain Frequencies in MhZ {<Core Clock>:<ICNT Clock>:<L2 Clock>:<DRAM Clock>}
-gpgpu_max_concurrent_kernel                    8 # maximum kernels that can run concurrently on GPU
-gpgpu_cflog_interval                    0 # Interval between each snapshot in control flow logger
-visualizer_enabled                     0 # Turn on visualizer output (1=On, 0=Off)
-visualizer_outputfile                 NULL # Specifies the output log file for visualizer
-visualizer_zlevel                      6 # Compression level of the visualizer output log (0=no comp, 9=highest)
-trace_enabled                          0 # Turn on traces
-trace_components                    none # comma seperated list of traces to enable. Complete list found in trace_streams.tup. Default none
-trace_sampling_core                    0 # The core which is printed using CORE_DPRINTF. Default 0
-trace_sampling_memory_partition                   -1 # The memory partition which is printed using MEMPART_DPRINTF. Default -1 (i.e. all)
-gddr_size                      2.27136MB # Size of GDDR in MB/GB.(GLOBAL_HEAP_START, GLOBAL_HEAP_START + gddr_size) would be used for unmanged memory, (GLOBAL_HEAP_START + gddr_size, GLOBAL_HEAP_START + gddr_size*2) would be used for managed memory. 
-page_table_walk_latency                  100 # Average page table walk latency (in core cycle).
-eviction_policy                      lru # Memory eviction policy: lru or random.
-percentage_of_free_page_buffer                    0 # Percentage of free page buffer to trigger the page eviction.
-page_size                            4KB # GDDR page size, only 4KB/2MB avaliable.
-pcie_bandwith                   16.0GB/s # PCI-e bandwith per direction, in GB/s.
-enable_nvlink                          1 # Enable nvlink 2.0, 150.0GB/s
-enable_rdma                            0 # Enable remote direct memory access
-migrate_threshold                     10 # Access counter threshold for migrating the page from cpu to gpu
-sim_prof_enable                        1 # Enable gpgpu-sim profiler
-hardware_prefetch                      1 # Enable gpgpu-sim hardware prefetcher
-page_fault_latency                 66645 # Average fault latency (in core cycle).
-enable_accurate_simulation                    0 # Enable page fault functional simulation.
-enable_ptx_file_line_stats                    1 # Turn on PTX source line statistic profiling. (1 = On)
-ptx_line_stats_filename gpgpu_inst_stats.txt # Output file for PTX source line statistics.
-gpgpu_kernel_launch_latency               222150 # Kernel launch latency in cycles. Default: 0
-gpgpu_cdp_enabled                      0 # Turn on CDP
-save_embedded_ptx                      0 # saves ptx files embedded in binary as <n>.ptx
-keep                                   0 # keep intermediate files created by GPGPU-Sim when interfacing with external programs
-gpgpu_ptx_save_converted_ptxplus                    0 # Saved converted ptxplus to a file
-ptx_opcode_latency_int         4,13,4,5,145 # Opcode latencies for integers <ADD,MAX,MUL,MAD,DIV>Default 1,1,19,25,145
-ptx_opcode_latency_fp          4,13,4,5,39 # Opcode latencies for single precision floating points <ADD,MAX,MUL,MAD,DIV>Default 1,1,1,1,30
-ptx_opcode_latency_dp         8,19,8,8,330 # Opcode latencies for double precision floating points <ADD,MAX,MUL,MAD,DIV>Default 8,8,8,8,335
-ptx_opcode_initiation_int            1,2,2,2,8 # Opcode initiation intervals for integers <ADD,MAX,MUL,MAD,DIV>Default 1,1,4,4,32
-ptx_opcode_initiation_fp            1,2,1,1,4 # Opcode initiation intervals for single precision floating points <ADD,MAX,MUL,MAD,DIV>Default 1,1,1,1,5
-ptx_opcode_initiation_dp          1,2,1,1,130 # Opcode initiation intervals for double precision floating points <ADD,MAX,MUL,MAD,DIV>Default 8,8,8,8,130
-cdp_latency         7200,8000,100,12000,1600 # CDP API latency <cudaStreamCreateWithFlags, cudaGetParameterBufferV2_init_perWarp, cudaGetParameterBufferV2_perKernel, cudaLaunchDeviceV2_init_perWarp, cudaLaunchDevicV2_perKernel>Default 7200,8000,100,12000,1600
DRAM Timing Options:
nbk                                    16 # number of banks
CCD                                     2 # column to column delay
RRD                                     6 # minimal delay between activation of rows in different banks
RCD                                    12 # row to column delay
RAS                                    28 # time needed to activate row
RP                                     12 # time needed to precharge (deactivate) row
RC                                     40 # row cycle time
CDLR                                    5 # switching from write to read (changes tWTR)
WR                                     12 # last data-in to row precharge
CL                                     12 # CAS latency
WL                                      4 # Write latency
nbkgrp                                  1 # number of bank groups
CCDL                                    0 # column to column delay between accesses to different bank groups
RTPL                                    0 # read to precharge delay between accesses to different bank groups
Total number of memory sub partition = 22
addr_dec_mask[CHIP]  = 0000000000000000 	high:64 low:0
addr_dec_mask[BK]    = 0000000000007080 	high:15 low:7
addr_dec_mask[ROW]   = 000000000fff8000 	high:28 low:15
addr_dec_mask[COL]   = 0000000000000f7f 	high:12 low:0
addr_dec_mask[BURST] = 000000000000001f 	high:5 low:0
sub_partition_id_mask = 0000000000000080
GPGPU-Sim uArch: clock freqs: 1481000000.000000:2962000000.000000:1481000000.000000:2750000000.000000
GPGPU-Sim uArch: clock periods: 0.00000000067521944632:0.00000000033760972316:0.00000000067521944632:0.00000000036363636364
*** Initializing Memory Statistics ***
GPGPU-Sim uArch: interconnect node map (shaderID+MemID to icntID)
GPGPU-Sim uArch: Memory nodes ID start from index: 28
GPGPU-Sim uArch:    0   1   2   3   4   5   6
GPGPU-Sim uArch:    7   8   9  10  11  12  13
GPGPU-Sim uArch:   14  15  16  17  18  19  20
GPGPU-Sim uArch:   21  22  23  24  25  26  27
GPGPU-Sim uArch:   28  29  30  31  32  33  34
GPGPU-Sim uArch:   35  36  37  38  39  40  41
GPGPU-Sim uArch:   42  43  44  45  46  47  48
GPGPU-Sim uArch:   49
GPGPU-Sim uArch: interconnect node reverse map (icntID to shaderID+MemID)
GPGPU-Sim uArch: Memory nodes start from ID: 28
GPGPU-Sim uArch:    0   1   2   3   4   5   6
GPGPU-Sim uArch:    7   8   9  10  11  12  13
GPGPU-Sim uArch:   14  15  16  17  18  19  20
GPGPU-Sim uArch:   21  22  23  24  25  26  27
GPGPU-Sim uArch:   28  29  30  31  32  33  34
GPGPU-Sim uArch:   35  36  37  38  39  40  41
GPGPU-Sim uArch:   42  43  44  45  46  47  48
GPGPU-Sim uArch:   49
77b2d49316c53bbeec8a503b72063f71  /home/gpuser/Documents/gpgpu-sim_UVM_rdma/benchmarks/Managed/bfs/bfs
GPGPU-Sim uArch: performance model initialization complete.
GPGPU-Sim PTX: __cudaRegisterFatBinary, fat_cubin_handle = 1, filename=default
self exe links to: /home/gpuser/Documents/gpgpu-sim_UVM_rdma/benchmarks/Managed/bfs/bfs
Running md5sum using "md5sum /home/gpuser/Documents/gpgpu-sim_UVM_rdma/benchmarks/Managed/bfs/bfs "
Parsing file _cuobjdump_complete_output_17mhYt
######### cuobjdump parser ########
## Adding new section ELF
Adding arch: sm_20
Adding identifier: default
## Adding new section ELF
Adding arch: sm_20
Adding identifier: default
## Adding new section PTX
Adding ptx filename: _cuobjdump_1.ptx
Adding arch: sm_20
Adding identifier: default
Done parsing!!!
GPGPU-Sim PTX: __cudaRegisterFunction _Z7Kernel2PbS_S_S_i : hostFun 0x0x401649, fat_cubin_handle = 1
GPGPU-Sim PTX: instruction assembly for function '_Z6KernelP4NodePiPbS2_S2_S1_i'...   done.
GPGPU-Sim PTX: finding reconvergence points for '_Z6KernelP4NodePiPbS2_S2_S1_i'...
GPGPU-Sim PTX: Finding dominators for '_Z6KernelP4NodePiPbS2_S2_S1_i'...
GPGPU-Sim PTX: Finding immediate dominators for '_Z6KernelP4NodePiPbS2_S2_S1_i'...
GPGPU-Sim PTX: Finding postdominators for '_Z6KernelP4NodePiPbS2_S2_S1_i'...
GPGPU-Sim PTX: Finding immediate postdominators for '_Z6KernelP4NodePiPbS2_S2_S1_i'...
GPGPU-Sim PTX: pre-decoding instructions for '_Z6KernelP4NodePiPbS2_S2_S1_i'...
GPGPU-Sim PTX: reconvergence points for _Z6KernelP4NodePiPbS2_S2_S1_i...
GPGPU-Sim PTX:  1 (potential) branch divergence @  PC=0x060 (_1.ptx:42) @%p1 bra BB0_7;
GPGPU-Sim PTX:    immediate post dominator      @  PC=0x1e8 (_1.ptx:101) ret;
GPGPU-Sim PTX:  2 (potential) branch divergence @  PC=0x090 (_1.ptx:49) @%p2 bra BB0_7;
GPGPU-Sim PTX:    immediate post dominator      @  PC=0x1e8 (_1.ptx:101) ret;
GPGPU-Sim PTX:  3 (potential) branch divergence @  PC=0x0d8 (_1.ptx:59) @%p3 bra BB0_7;
GPGPU-Sim PTX:    immediate post dominator      @  PC=0x1e8 (_1.ptx:101) ret;
GPGPU-Sim PTX:  4 (potential) branch divergence @  PC=0x160 (_1.ptx:79) @%p4 bra BB0_6;
GPGPU-Sim PTX:    immediate post dominator      @  PC=0x1b8 (_1.ptx:93) mov.u32 %r24, %r25;
GPGPU-Sim PTX:  5 (potential) branch divergence @  PC=0x1e0 (_1.ptx:98) @%p5 bra BB0_4;
GPGPU-Sim PTX:    immediate post dominator      @  PC=0x1e8 (_1.ptx:101) ret;
GPGPU-Sim PTX: ... end of reconvergence points for _Z6KernelP4NodePiPbS2_S2_S1_i
GPGPU-Sim PTX: ... done pre-decoding instructions for '_Z6KernelP4NodePiPbS2_S2_S1_i'.
GPGPU-Sim PTX: instruction assembly for function '_Z7Kernel2PbS_S_S_i'...   done.
GPGPU-Sim PTX: finding reconvergence points for '_Z7Kernel2PbS_S_S_i'...
GPGPU-Sim PTX: Finding dominators for '_Z7Kernel2PbS_S_S_i'...
GPGPU-Sim PTX: Finding immediate dominators for '_Z7Kernel2PbS_S_S_i'...
GPGPU-Sim PTX: Finding postdominators for '_Z7Kernel2PbS_S_S_i'...
GPGPU-Sim PTX: Finding immediate postdominators for '_Z7Kernel2PbS_S_S_i'...
GPGPU-Sim PTX: pre-decoding instructions for '_Z7Kernel2PbS_S_S_i'...
GPGPU-Sim PTX: reconvergence points for _Z7Kernel2PbS_S_S_i...
GPGPU-Sim PTX:  1 (potential) branch divergence @  PC=0x240 (_1.ptx:129) @%p1 bra BB1_3;
GPGPU-Sim PTX:    immediate post dominator      @  PC=0x2d0 (_1.ptx:151) ret;
GPGPU-Sim PTX:  2 (potential) branch divergence @  PC=0x270 (_1.ptx:136) @%p2 bra BB1_3;
GPGPU-Sim PTX:    immediate post dominator      @  PC=0x2d0 (_1.ptx:151) ret;
GPGPU-Sim PTX: ... end of reconvergence points for _Z7Kernel2PbS_S_S_i
GPGPU-Sim PTX: ... done pre-decoding instructions for '_Z7Kernel2PbS_S_S_i'.
GPGPU-Sim PTX: finished parsing EMBEDDED .ptx file _1.ptx
Adding _cuobjdump_1.ptx with cubin handle 1
GPGPU-Sim PTX: extracting embedded .ptx to temporary file "_ptx_0naMA0"
Running: cat _ptx_0naMA0 | sed 's/.version 1.5/.version 1.4/' | sed 's/, texmode_independent//' | sed 's/\(\.extern \.const\[1\] .b8 \w\+\)\[\]/\1\[1\]/' | sed 's/const\[.\]/const\[0\]/g' > _ptx2_eOVhdx
GPGPU-Sim PTX: generating ptxinfo using "$CUDA_INSTALL_PATH/bin/ptxas --gpu-name=sm_20 -v _ptx2_eOVhdx --output-file  /dev/null 2> _ptx_0naMA0info"
GPGPU-Sim PTX: Kernel '_Z7Kernel2PbS_S_S_i' : regs=12, lmem=0, smem=0, cmem=68
GPGPU-Sim PTX: Kernel '_Z6KernelP4NodePiPbS2_S2_S1_i' : regs=15, lmem=0, smem=0, cmem=84
GPGPU-Sim PTX: removing ptxinfo using "rm -f _ptx_0naMA0 _ptx2_eOVhdx _ptx_0naMA0info"
GPGPU-Sim PTX: loading globals with explicit initializers... 
GPGPU-Sim PTX: finished loading globals (0 bytes total).
GPGPU-Sim PTX: loading constants with explicit initializers...  done.
GPGPU-Sim PTX: __cudaRegisterFunction _Z6KernelP4NodePiPbS2_S2_S1_i : hostFun 0x0x401519, fat_cubin_handle = 1
Reading File
Read File
Copied Everything to GPU memory
Start traversing the tree

GPGPU-Sim PTX: cudaLaunch for 0x0x401519 (mode=performance simulation) on stream 0
GPGPU-Sim PTX: pushing kernel '_Z6KernelP4NodePiPbS2_S2_S1_i' to stream 0, gridDim= (128,1,1) blockDim = (512,1,1) 
GPGPU-Sim uArch: Shader 1 bind to kernel 1 '_Z6KernelP4NodePiPbS2_S2_S1_i'
GPGPU-Sim uArch: CTA/core = 4, limited by: threads
GPGPU-Sim uArch: Shader 2 bind to kernel 1 '_Z6KernelP4NodePiPbS2_S2_S1_i'
GPGPU-Sim uArch: Shader 3 bind to kernel 1 '_Z6KernelP4NodePiPbS2_S2_S1_i'
GPGPU-Sim uArch: Shader 4 bind to kernel 1 '_Z6KernelP4NodePiPbS2_S2_S1_i'
GPGPU-Sim uArch: Shader 5 bind to kernel 1 '_Z6KernelP4NodePiPbS2_S2_S1_i'
GPGPU-Sim uArch: Shader 6 bind to kernel 1 '_Z6KernelP4NodePiPbS2_S2_S1_i'
GPGPU-Sim uArch: Shader 7 bind to kernel 1 '_Z6KernelP4NodePiPbS2_S2_S1_i'
GPGPU-Sim uArch: Shader 8 bind to kernel 1 '_Z6KernelP4NodePiPbS2_S2_S1_i'
GPGPU-Sim uArch: Shader 9 bind to kernel 1 '_Z6KernelP4NodePiPbS2_S2_S1_i'
GPGPU-Sim uArch: Shader 10 bind to kernel 1 '_Z6KernelP4NodePiPbS2_S2_S1_i'
GPGPU-Sim uArch: Shader 11 bind to kernel 1 '_Z6KernelP4NodePiPbS2_S2_S1_i'
GPGPU-Sim uArch: Shader 12 bind to kernel 1 '_Z6KernelP4NodePiPbS2_S2_S1_i'
GPGPU-Sim uArch: Shader 13 bind to kernel 1 '_Z6KernelP4NodePiPbS2_S2_S1_i'
GPGPU-Sim uArch: Shader 14 bind to kernel 1 '_Z6KernelP4NodePiPbS2_S2_S1_i'
GPGPU-Sim uArch: Shader 15 bind to kernel 1 '_Z6KernelP4NodePiPbS2_S2_S1_i'
GPGPU-Sim uArch: Shader 16 bind to kernel 1 '_Z6KernelP4NodePiPbS2_S2_S1_i'
GPGPU-Sim uArch: Shader 17 bind to kernel 1 '_Z6KernelP4NodePiPbS2_S2_S1_i'
GPGPU-Sim uArch: Shader 18 bind to kernel 1 '_Z6KernelP4NodePiPbS2_S2_S1_i'
GPGPU-Sim uArch: Shader 19 bind to kernel 1 '_Z6KernelP4NodePiPbS2_S2_S1_i'
GPGPU-Sim uArch: Shader 20 bind to kernel 1 '_Z6KernelP4NodePiPbS2_S2_S1_i'
GPGPU-Sim uArch: Shader 21 bind to kernel 1 '_Z6KernelP4NodePiPbS2_S2_S1_i'
GPGPU-Sim uArch: Shader 22 bind to kernel 1 '_Z6KernelP4NodePiPbS2_S2_S1_i'
GPGPU-Sim uArch: Shader 23 bind to kernel 1 '_Z6KernelP4NodePiPbS2_S2_S1_i'
GPGPU-Sim uArch: Shader 24 bind to kernel 1 '_Z6KernelP4NodePiPbS2_S2_S1_i'
GPGPU-Sim uArch: Shader 25 bind to kernel 1 '_Z6KernelP4NodePiPbS2_S2_S1_i'
GPGPU-Sim uArch: Shader 26 bind to kernel 1 '_Z6KernelP4NodePiPbS2_S2_S1_i'
GPGPU-Sim uArch: Shader 27 bind to kernel 1 '_Z6KernelP4NodePiPbS2_S2_S1_i'
GPGPU-Sim uArch: Shader 0 bind to kernel 1 '_Z6KernelP4NodePiPbS2_S2_S1_i'
Destroy streams for kernel 1: size 0
kernel_name = _Z6KernelP4NodePiPbS2_S2_S1_i 
kernel_launch_uid = 1 
gpu_sim_cycle = 11808
gpu_sim_insn = 1245376
gpu_ipc =     105.4688
gpu_tot_sim_cycle = 234212
gpu_tot_sim_insn = 1245376
gpu_tot_ipc =       5.3173
gpu_tot_issued_cta = 128
max_total_param_size = 0
gpu_stall_dramfull = 0
gpu_stall_icnt2sh    = 2408
partiton_reqs_in_parallel = 259776
partiton_reqs_in_parallel_total    = 0
partiton_level_parallism =      22.0000
partiton_level_parallism_total  =       1.1091
partiton_reqs_in_parallel_util = 259776
partiton_reqs_in_parallel_util_total    = 0
gpu_sim_cycle_parition_util = 11808
gpu_tot_sim_cycle_parition_util    = 0
partiton_level_parallism_util =      22.0000
partiton_level_parallism_util_total  =      22.0000
partiton_replys_in_parallel = 2220
partiton_replys_in_parallel_total    = 0
L2_BW  =      17.8202 GB/Sec
L2_BW_total  =       0.8984 GB/Sec
gpu_total_sim_rate=155672

========= Core cache stats =========
L1I_cache:
	L1I_total_cache_accesses = 22632
	L1I_total_cache_misses = 2778
	L1I_total_cache_miss_rate = 0.1227
	L1I_total_cache_pending_hits = 0
	L1I_total_cache_reservation_fails = 6846
L1D_cache:
	L1D_cache_core[0]: Access = 0, Miss = 0, Miss_rate = -nan, Pending_hits = 0, Reservation_fails = 0
	L1D_cache_core[1]: Access = 0, Miss = 0, Miss_rate = -nan, Pending_hits = 0, Reservation_fails = 0
	L1D_cache_core[2]: Access = 0, Miss = 0, Miss_rate = -nan, Pending_hits = 0, Reservation_fails = 0
	L1D_cache_core[3]: Access = 0, Miss = 0, Miss_rate = -nan, Pending_hits = 0, Reservation_fails = 0
	L1D_cache_core[4]: Access = 0, Miss = 0, Miss_rate = -nan, Pending_hits = 0, Reservation_fails = 0
	L1D_cache_core[5]: Access = 0, Miss = 0, Miss_rate = -nan, Pending_hits = 0, Reservation_fails = 0
	L1D_cache_core[6]: Access = 0, Miss = 0, Miss_rate = -nan, Pending_hits = 0, Reservation_fails = 0
	L1D_cache_core[7]: Access = 0, Miss = 0, Miss_rate = -nan, Pending_hits = 0, Reservation_fails = 0
	L1D_cache_core[8]: Access = 0, Miss = 0, Miss_rate = -nan, Pending_hits = 0, Reservation_fails = 0
	L1D_cache_core[9]: Access = 0, Miss = 0, Miss_rate = -nan, Pending_hits = 0, Reservation_fails = 0
	L1D_cache_core[10]: Access = 0, Miss = 0, Miss_rate = -nan, Pending_hits = 0, Reservation_fails = 0
	L1D_cache_core[11]: Access = 0, Miss = 0, Miss_rate = -nan, Pending_hits = 0, Reservation_fails = 0
	L1D_cache_core[12]: Access = 0, Miss = 0, Miss_rate = -nan, Pending_hits = 0, Reservation_fails = 0
	L1D_cache_core[13]: Access = 0, Miss = 0, Miss_rate = -nan, Pending_hits = 0, Reservation_fails = 0
	L1D_cache_core[14]: Access = 0, Miss = 0, Miss_rate = -nan, Pending_hits = 0, Reservation_fails = 0
	L1D_cache_core[15]: Access = 0, Miss = 0, Miss_rate = -nan, Pending_hits = 0, Reservation_fails = 0
	L1D_cache_core[16]: Access = 0, Miss = 0, Miss_rate = -nan, Pending_hits = 0, Reservation_fails = 0
	L1D_cache_core[17]: Access = 0, Miss = 0, Miss_rate = -nan, Pending_hits = 0, Reservation_fails = 0
	L1D_cache_core[18]: Access = 0, Miss = 0, Miss_rate = -nan, Pending_hits = 0, Reservation_fails = 0
	L1D_cache_core[19]: Access = 0, Miss = 0, Miss_rate = -nan, Pending_hits = 0, Reservation_fails = 0
	L1D_cache_core[20]: Access = 0, Miss = 0, Miss_rate = -nan, Pending_hits = 0, Reservation_fails = 0
	L1D_cache_core[21]: Access = 0, Miss = 0, Miss_rate = -nan, Pending_hits = 0, Reservation_fails = 0
	L1D_cache_core[22]: Access = 0, Miss = 0, Miss_rate = -nan, Pending_hits = 0, Reservation_fails = 0
	L1D_cache_core[23]: Access = 0, Miss = 0, Miss_rate = -nan, Pending_hits = 0, Reservation_fails = 0
	L1D_cache_core[24]: Access = 0, Miss = 0, Miss_rate = -nan, Pending_hits = 0, Reservation_fails = 0
	L1D_cache_core[25]: Access = 0, Miss = 0, Miss_rate = -nan, Pending_hits = 0, Reservation_fails = 0
	L1D_cache_core[26]: Access = 0, Miss = 0, Miss_rate = -nan, Pending_hits = 0, Reservation_fails = 0
	L1D_cache_core[27]: Access = 0, Miss = 0, Miss_rate = -nan, Pending_hits = 0, Reservation_fails = 0
	L1D_total_cache_accesses = 0
	L1D_total_cache_misses = 0
	L1D_total_cache_pending_hits = 0
	L1D_total_cache_reservation_fails = 0
	L1D_cache_data_port_util = 0.000
	L1D_cache_fill_port_util = 0.000
L1C_cache:
	L1C_total_cache_accesses = 14336
	L1C_total_cache_misses = 1792
	L1C_total_cache_miss_rate = 0.1250
	L1C_total_cache_pending_hits = 0
	L1C_total_cache_reservation_fails = 4886
L1T_cache:
	L1T_total_cache_accesses = 0
	L1T_total_cache_misses = 0
	L1T_total_cache_pending_hits = 0
	L1T_total_cache_reservation_fails = 0

Total_core_cache_stats:
	Total_core_cache_stats_breakdown[GLOBAL_ACC_R][HIT] = 0
	Total_core_cache_stats_breakdown[GLOBAL_ACC_R][HIT_RESERVED] = 0
	Total_core_cache_stats_breakdown[GLOBAL_ACC_R][MISS] = 0
	Total_core_cache_stats_breakdown[GLOBAL_ACC_R][RESERVATION_FAIL] = 0
	Total_core_cache_stats_breakdown[LOCAL_ACC_R][HIT] = 0
	Total_core_cache_stats_breakdown[LOCAL_ACC_R][HIT_RESERVED] = 0
	Total_core_cache_stats_breakdown[LOCAL_ACC_R][MISS] = 0
	Total_core_cache_stats_breakdown[LOCAL_ACC_R][RESERVATION_FAIL] = 0
	Total_core_cache_stats_breakdown[CONST_ACC_R][HIT] = 12544
	Total_core_cache_stats_breakdown[CONST_ACC_R][HIT_RESERVED] = 0
	Total_core_cache_stats_breakdown[CONST_ACC_R][MISS] = 1792
	Total_core_cache_stats_breakdown[CONST_ACC_R][RESERVATION_FAIL] = 4886
	Total_core_cache_stats_breakdown[TEXTURE_ACC_R][HIT] = 0
	Total_core_cache_stats_breakdown[TEXTURE_ACC_R][HIT_RESERVED] = 0
	Total_core_cache_stats_breakdown[TEXTURE_ACC_R][MISS] = 0
	Total_core_cache_stats_breakdown[TEXTURE_ACC_R][RESERVATION_FAIL] = 0
	Total_core_cache_stats_breakdown[GLOBAL_ACC_W][HIT] = 0
	Total_core_cache_stats_breakdown[GLOBAL_ACC_W][HIT_RESERVED] = 0
	Total_core_cache_stats_breakdown[GLOBAL_ACC_W][MISS] = 0
	Total_core_cache_stats_breakdown[GLOBAL_ACC_W][RESERVATION_FAIL] = 0
	Total_core_cache_stats_breakdown[LOCAL_ACC_W][HIT] = 0
	Total_core_cache_stats_breakdown[LOCAL_ACC_W][HIT_RESERVED] = 0
	Total_core_cache_stats_breakdown[LOCAL_ACC_W][MISS] = 0
	Total_core_cache_stats_breakdown[LOCAL_ACC_W][RESERVATION_FAIL] = 0
	Total_core_cache_stats_breakdown[L1_WRBK_ACC][HIT] = 0
	Total_core_cache_stats_breakdown[L1_WRBK_ACC][HIT_RESERVED] = 0
	Total_core_cache_stats_breakdown[L1_WRBK_ACC][MISS] = 0
	Total_core_cache_stats_breakdown[L1_WRBK_ACC][RESERVATION_FAIL] = 0
	Total_core_cache_stats_breakdown[L2_WRBK_ACC][HIT] = 0
	Total_core_cache_stats_breakdown[L2_WRBK_ACC][HIT_RESERVED] = 0
	Total_core_cache_stats_breakdown[L2_WRBK_ACC][MISS] = 0
	Total_core_cache_stats_breakdown[L2_WRBK_ACC][RESERVATION_FAIL] = 0
	Total_core_cache_stats_breakdown[INST_ACC_R][HIT] = 19854
	Total_core_cache_stats_breakdown[INST_ACC_R][HIT_RESERVED] = 0
	Total_core_cache_stats_breakdown[INST_ACC_R][MISS] = 2778
	Total_core_cache_stats_breakdown[INST_ACC_R][RESERVATION_FAIL] = 6846
	Total_core_cache_stats_breakdown[L1_WR_ALLOC_R][HIT] = 0
	Total_core_cache_stats_breakdown[L1_WR_ALLOC_R][HIT_RESERVED] = 0
	Total_core_cache_stats_breakdown[L1_WR_ALLOC_R][MISS] = 0
	Total_core_cache_stats_breakdown[L1_WR_ALLOC_R][RESERVATION_FAIL] = 0
	Total_core_cache_stats_breakdown[L2_WR_ALLOC_R][HIT] = 0
	Total_core_cache_stats_breakdown[L2_WR_ALLOC_R][HIT_RESERVED] = 0
	Total_core_cache_stats_breakdown[L2_WR_ALLOC_R][MISS] = 0
	Total_core_cache_stats_breakdown[L2_WR_ALLOC_R][RESERVATION_FAIL] = 0
	Total_core_cache_stats_breakdown[CONST_ACC_R][TOTAL_ACCESS] = 14336
	Total_core_cache_stats_breakdown[INST_ACC_R][TOTAL_ACCESS] = 22632
Shader 0 warp_id issue ditsribution:
warp_id:
0, 1, 2, 3, 4, 5, 6, 7, 8, 9, 10, 11, 12, 13, 14, 15, 16, 17, 18, 19, 20, 21, 22, 23, 24, 25, 26, 27, 28, 29, 30, 31, 32, 33, 34, 35, 36, 37, 38, 39, 40, 41, 42, 43, 44, 45, 46, 47, 48, 49, 50, 51, 52, 53, 54, 55, 56, 57, 58, 59, 60, 61, 62, 63, 
distro:
23, 23, 22, 23, 22, 23, 22, 23, 23, 23, 23, 23, 23, 23, 23, 23, 23, 23, 23, 23, 23, 23, 23, 23, 23, 23, 23, 23, 23, 23, 23, 23, 23, 23, 23, 23, 23, 23, 23, 23, 23, 23, 23, 23, 23, 23, 23, 23, 23, 23, 23, 23, 23, 23, 23, 23, 23, 23, 23, 23, 23, 23, 23, 23, 
gpgpu_n_tot_thrd_icount = 1317216
gpgpu_n_tot_w_icount = 41163
gpgpu_n_stall_shd_mem = 5208
gpgpu_n_mem_read_local = 0
gpgpu_n_mem_write_local = 0
gpgpu_n_mem_read_global = 2090
gpgpu_n_mem_write_global = 17
gpgpu_n_mem_texture = 0
gpgpu_n_mem_const = 28
gpgpu_n_load_insn  = 65578
gpgpu_n_store_insn = 17
gpgpu_n_shmem_insn = 0
gpgpu_n_tex_insn = 0
gpgpu_n_const_mem_insn = 0
gpgpu_n_param_mem_insn = 458752
gpgpu_n_shmem_bkconflict = 0
gpgpu_n_cache_bkconflict = 0
gpgpu_n_intrawarp_mshr_merge = 0
gpgpu_n_cmem_portconflict = 4886
gpgpu_stall_shd_mem[c_mem][bk_conf] = 4886
gpgpu_stall_shd_mem[c_mem][mshr_rc] = 0
gpgpu_stall_shd_mem[c_mem][icnt_rc] = 0
gpgpu_stall_shd_mem[c_mem][data_port_stall] = 0
gpgpu_stall_shd_mem[t_mem][mshr_rc] = 0
gpgpu_stall_shd_mem[t_mem][icnt_rc] = 0
gpgpu_stall_shd_mem[t_mem][data_port_stall] = 0
gpgpu_stall_shd_mem[s_mem][bk_conf] = 0
gpgpu_stall_shd_mem[gl_mem][bk_conf] = 0
gpgpu_stall_shd_mem[gl_mem][coal_stall] = 0
gpgpu_stall_shd_mem[gl_mem][data_port_stall] = 0
gpgpu_stall_shd_mem[g_mem_ld][mshr_rc] = 0
gpgpu_stall_shd_mem[g_mem_ld][icnt_rc] = 322
gpgpu_stall_shd_mem[g_mem_ld][wb_icnt_rc] = 0
gpgpu_stall_shd_mem[g_mem_ld][wb_rsrv_fail] = 0
gpgpu_stall_shd_mem[g_mem_st][mshr_rc] = 0
gpgpu_stall_shd_mem[g_mem_st][icnt_rc] = 0
gpgpu_stall_shd_mem[g_mem_st][wb_icnt_rc] = 0
gpgpu_stall_shd_mem[g_mem_st][wb_rsrv_fail] = 0
gpgpu_stall_shd_mem[l_mem_ld][mshr_rc] = 0
gpgpu_stall_shd_mem[l_mem_ld][icnt_rc] = 0
gpgpu_stall_shd_mem[l_mem_ld][wb_icnt_rc] = 0
gpgpu_stall_shd_mem[l_mem_ld][wb_rsrv_fail] = 0
gpgpu_stall_shd_mem[l_mem_st][mshr_rc] = 0
gpgpu_stall_shd_mem[l_mem_st][icnt_rc] = 0
gpgpu_stall_shd_mem[l_mem_ld][wb_icnt_rc] = 0
gpgpu_stall_shd_mem[l_mem_ld][wb_rsrv_fail] = 0
gpu_reg_bank_conflict_stalls = 0
Warp Occupancy Distribution:
Stall:16035	W0_Idle:27332	W0_Scoreboard:73732	W1:203	W2:0	W3:0	W4:0	W5:0	W6:0	W7:0	W8:0	W9:0	W10:0	W11:0	W12:0	W13:0	W14:0	W15:0	W16:0	W17:0	W18:0	W19:0	W20:0	W21:0	W22:0	W23:0	W24:0	W25:0	W26:0	W27:0	W28:0	W29:0	W30:0	W31:0	W32:40960
traffic_breakdown_coretomem[CONST_ACC_R] = 224 {8:28,}
traffic_breakdown_coretomem[GLOBAL_ACC_R] = 16720 {8:2090,}
traffic_breakdown_coretomem[GLOBAL_ACC_W] = 680 {40:17,}
traffic_breakdown_coretomem[INST_ACC_R] = 680 {8:85,}
traffic_breakdown_memtocore[CONST_ACC_R] = 2016 {72:28,}
traffic_breakdown_memtocore[GLOBAL_ACC_R] = 83600 {40:2090,}
traffic_breakdown_memtocore[GLOBAL_ACC_W] = 136 {8:17,}
traffic_breakdown_memtocore[INST_ACC_R] = 11560 {136:85,}
maxmrqlatency = 74 
maxdqlatency = 0 
maxmflatency = 1791 
averagemflatency = 1001 
max_icnt2mem_latency = 1550 
max_icnt2sh_latency = 234211 
mrq_lat_table:140 	31 	41 	66 	126 	143 	13 	0 	0 	0 	0 	0 	0 	0 	0 	0 	0 	0 	0 	0 	0 	0 	0 	0 	0 	0 	0 	0 	0 	0 	0 	0 	
dq_lat_table:0 	0 	0 	0 	0 	0 	0 	0 	0 	0 	0 	0 	0 	0 	0 	0 	0 	0 	0 	0 	0 	0 	0 	0 	0 	0 	0 	0 	0 	0 	0 	0 	
mf_lat_table:0 	0 	0 	0 	0 	0 	0 	76 	258 	517 	1284 	0 	0 	0 	0 	0 	0 	0 	0 	0 	0 	0 	0 	0 	0 	0 	0 	0 	0 	0 	0 	0 	
icnt2mem_lat_table:0 	0 	131 	32 	28 	1 	210 	17 	513 	466 	822 	0 	0 	0 	0 	0 	0 	0 	0 	0 	0 	0 	0 	0 	
icnt2sh_lat_table:0 	0 	498 	1093 	526 	1 	0 	0 	0 	0 	0 	0 	0 	0 	0 	0 	0 	17 	0 	0 	0 	0 	0 	0 	
mf_lat_pw_table:0 	0 	0 	0 	0 	0 	0 	7 	7 	2 	2 	0 	0 	0 	0 	0 	0 	0 	0 	0 	0 	0 	0 	0 	0 	0 	0 	0 	0 	0 	0 	0 	
maximum concurrent accesses to same row:
dram[0]:         1         0         0         0         0         0         0         0         0         0         0         0         0         0         0         0 
dram[1]:         0         0         0         0         0         0         0         0         0         0         0         0         0         0         0         0 
dram[2]:         0         0         0         0         0         0         0         0         0         0         0         0         0         0         0         0 
dram[3]:         0         0         0         0         0         0         1         0         0         0         0         0         0         0         0         0 
dram[4]:         0         0         0         0         0         0         0         0         0         0         0         0         0         0         1        14 
dram[5]:         0         0         0         0         0         0         0         0         0         0         0         0         0         0        15         6 
dram[6]:         0         0         0         0         0         0         0         0         0         0         0         0         0         0         0         0 
dram[7]:         0         0         0         0         0         0         0         0         0         0         0         0         0         0         0         0 
dram[8]:         0         0         0         0         0         0         0         0         0         0         0         0         0         0         0         0 
dram[9]:         0         0         0         0         0         0         0         0         0         0         0         0         0         0         0         0 
dram[10]:         0         0         0         0         0         0         0         0         0         0         0         0         0         0        15         0 
maximum service time to same row:
dram[0]:      2209      2212         0         0      5636         0         0         0         0         0         0         0         0         0      1493      1497 
dram[1]:      2213      2219     11707         0      7725         0         0         0         0         0         0     11179         0         0      1493      1496 
dram[2]:      2209      2212         0         0         0         0         0         0         0         0         0         0         0         0      1493      1497 
dram[3]:      2213      2219         0      7490         0         0      2440      6460         0         0         0         0         0         0      1493      1496 
dram[4]:      2210      2214     10307         0     11275         0         0         0         0         0         0         0         0         0      1265      6816 
dram[5]:      2219      2225      8595     10953         0         0     11795         0         0         0         0         0         0         0      1493      1497 
dram[6]:      2204      2209         0         0         0         0         0      6349         0         0         0         0         0         0      1493      1496 
dram[7]:      2211      2218      9451         0      9773         0         0         0     10355         0         0         0         0         0      1493      1494 
dram[8]:      2214      2216         0         0         0      7205      8061         0         0     10356         0         0         0         0      1493      1494 
dram[9]:      2218      2220         0         0      4690         0         0         0         0         0         0         0         0         0      1493      1494 
dram[10]:      2213      2214         0         0      8917         0         0         0         0         0         0         0         0         0      7088      1496 
average row accesses per activate:
dram[0]: 10.000000  9.000000      -nan      -nan  1.000000      -nan      -nan      -nan      -nan      -nan      -nan      -nan      -nan      -nan 14.000000 14.000000 
dram[1]:  9.000000  9.000000  2.000000      -nan  2.000000      -nan      -nan      -nan      -nan      -nan      -nan  2.000000      -nan      -nan 14.000000 14.000000 
dram[2]:  9.000000  9.000000      -nan      -nan      -nan      -nan      -nan      -nan      -nan      -nan      -nan      -nan      -nan      -nan 14.000000 14.000000 
dram[3]:  9.000000  9.000000      -nan  2.000000      -nan      -nan  1.000000  2.000000      -nan      -nan      -nan      -nan      -nan      -nan 14.000000 14.000000 
dram[4]:  9.000000  9.000000  2.000000      -nan  1.000000      -nan      -nan      -nan      -nan      -nan      -nan      -nan      -nan      -nan  7.500000  5.666667 
dram[5]:  9.000000 11.000000  2.000000  2.000000      -nan      -nan  2.000000      -nan      -nan      -nan      -nan      -nan      -nan      -nan  8.000000  5.333333 
dram[6]: 11.000000  9.000000      -nan      -nan      -nan      -nan      -nan  1.000000      -nan      -nan      -nan      -nan      -nan      -nan 15.000000 15.000000 
dram[7]:  9.000000  9.000000  2.000000      -nan  1.000000      -nan      -nan      -nan  2.000000      -nan      -nan      -nan      -nan      -nan 15.000000 15.000000 
dram[8]:  8.000000  8.000000      -nan      -nan      -nan  2.000000  1.000000      -nan      -nan  2.000000      -nan      -nan      -nan      -nan 15.000000 15.000000 
dram[9]:  8.000000  8.000000      -nan      -nan  1.000000      -nan      -nan      -nan      -nan      -nan      -nan      -nan      -nan      -nan 15.000000 15.000000 
dram[10]:  8.000000  8.000000      -nan      -nan  1.000000      -nan      -nan      -nan      -nan      -nan      -nan      -nan      -nan      -nan  8.500000 15.000000 
average row locality = 560/73 = 7.671233
number of total memory accesses made:
dram[0]:         0         0         0         0         0         0         0         0         0         0         0         0         0         0         0         0 
dram[1]:         0         0         0         0         0         0         0         0         0         0         0         0         0         0         0         0 
dram[2]:         0         0         0         0         0         0         0         0         0         0         0         0         0         0         0         0 
dram[3]:         0         0         0         0         0         0         0         0         0         0         0         0         0         0         0         0 
dram[4]:         0         0         0         0         0         0         0         0         0         0         0         0         0         0         0         0 
dram[5]:         0         0         0         0         0         0         0         0         0         0         0         0         0         0         0         0 
dram[6]:         0         0         0         0         0         0         0         0         0         0         0         0         0         0         0         0 
dram[7]:         0         0         0         0         0         0         0         0         0         0         0         0         0         0         0         0 
dram[8]:         0         0         0         0         0         0         0         0         0         0         0         0         0         0         0         0 
dram[9]:         0         0         0         0         0         0         0         0         0         0         0         0         0         0         0         0 
dram[10]:         0         0         0         0         0         0         0         0         0         0         0         0         0         0         0         0 
total accesses: 0
min_bank_accesses = 0!
min_chip_accesses = 0!
number of total read accesses:
dram[0]:        10         9         0         0         1         0         0         0         0         0         0         0         0         0        14        14 
dram[1]:         9         9         1         0         1         0         0         0         0         0         0         1         0         0        14        14 
dram[2]:         9         9         0         0         0         0         0         0         0         0         0         0         0         0        14        14 
dram[3]:         9         9         0         1         0         0         2         1         0         0         0         0         0         0        14        14 
dram[4]:         9         9         1         0         1         0         0         0         0         0         0         0         0         0        15        16 
dram[5]:         9        10         1         1         0         0         1         0         0         0         0         0         0         0        16        16 
dram[6]:        10         9         0         0         0         0         0         1         0         0         0         0         0         0        15        15 
dram[7]:         9         9         1         0         1         0         0         0         1         0         0         0         0         0        15        15 
dram[8]:         8         8         0         0         0         2         1         0         0         1         0         0         0         0        15        15 
dram[9]:         8         8         0         0         1         0         0         0         0         0         0         0         0         0        15        15 
dram[10]:         8         8         0         0         1         0         0         0         0         0         0         0         0         0        16        15 
total reads: 544
min_bank_accesses = 0!
chip skew: 54/46 = 1.17
number of total write accesses:
dram[0]:         0         0         0         0         0         0         0         0         0         0         0         0         0         0         0         0 
dram[1]:         0         0         1         0         1         0         0         0         0         0         0         1         0         0         0         0 
dram[2]:         0         0         0         0         0         0         0         0         0         0         0         0         0         0         0         0 
dram[3]:         0         0         0         1         0         0         0         1         0         0         0         0         0         0         0         0 
dram[4]:         0         0         1         0         0         0         0         0         0         0         0         0         0         0         0         1 
dram[5]:         0         1         1         1         0         0         1         0         0         0         0         0         0         0         0         0 
dram[6]:         1         0         0         0         0         0         0         0         0         0         0         0         0         0         0         0 
dram[7]:         0         0         1         0         0         0         0         0         1         0         0         0         0         0         0         0 
dram[8]:         0         0         0         0         0         0         0         0         0         1         0         0         0         0         0         0 
dram[9]:         0         0         0         0         0         0         0         0         0         0         0         0         0         0         0         0 
dram[10]:         0         0         0         0         0         0         0         0         0         0         0         0         0         0         1         0 
total reads: 16
min_bank_accesses = 0!
min_chip_accesses = 0!
average mf latency per bank:
dram[0]:       4199      3954    none      none        1843    none      none      none      none      none      none      none      none      none        4121      4181
dram[1]:       3863      3944       119    none         170    none      none      none      none      none      none         239    none      none        4115      4197
dram[2]:       3863      3919    none      none      none      none      none      none      none      none      none      none      none      none        4104      4175
dram[3]:       3884      3928    none         473    none      none        2338       394    none      none      none      none      none      none        4297      4388
dram[4]:       3901      3982       170    none         250    none      none      none      none      none      none      none      none      none        4033      3734
dram[5]:       3836      3225       170       119    none      none         170    none      none      none      none      none      none      none        3982      4056
dram[6]:       3294      3942    none      none      none      none      none         352    none      none      none      none      none      none        4210      4302
dram[7]:       3948      3986       170    none         352    none      none      none         201    none      none      none      none      none        4195      4296
dram[8]:       4254      4251    none      none      none         298       352    none      none         630    none      none      none      none        4197      4292
dram[9]:       3714      3729    none      none        1144    none      none      none      none      none      none      none      none      none        4191      4285
dram[10]:       3733      3758    none      none         352    none      none      none      none      none      none      none      none      none        3727      4282
maximum mf latency per bank:
dram[0]:       1370      1379         0         0       933         0         0         0         0         0         0         0         0         0      1366      1381
dram[1]:       1368      1384       239         0       341         0         0         0         0         0         0       478         0         0      1367      1393
dram[2]:       1362      1373         0         0         0         0         0         0         0         0         0         0         0         0      1362      1382
dram[3]:       1372      1388         0       947         0         0       904       788         0         0         0         0         0         0      1366      1396
dram[4]:       1400      1405       341         0       250         0         0         0         0         0         0         0         0         0      1374      1791
dram[5]:       1411      1410       341       239         0         0       341         0         0         0         0         0         0         0      1392      1407
dram[6]:       1435      1455         0         0         0         0         0       352         0         0         0         0         0         0      1383      1412
dram[7]:       1426      1454       341         0       352         0         0         0       402         0         0         0         0         0      1363      1401
dram[8]:       1389      1381         0         0         0       352       352         0         0      1260         0         0         0         0      1372      1406
dram[9]:       1374      1390         0         0      1144         0         0         0         0         0         0         0         0         0      1368      1399
dram[10]:       1381      1392         0         0       352         0         0         0         0         0         0         0         0         0      1368      1400
Memory Partition 0: 
Cache L2_bank_000:
MSHR contents

Cache L2_bank_001:
MSHR contents

In Dram Latency Queue (total = 0): 
DRAM[0]: 16 bks, busW=4 BL=8 CL=12, tRRD=2 tCCD=6, tRCD=12 tRAS=28 tRP=12 tRC=40
n_cmd=21924 n_nop=21725 n_act=6 n_pre=1 n_req=48 n_rd=192 n_write=0 bw_util=0.01752
n_activity=480 dram_eff=0.8
bk0: 40a 21755i bk1: 36a 21713i bk2: 0a 21923i bk3: 0a 21925i bk4: 4a 21905i bk5: 0a 21923i bk6: 0a 21923i bk7: 0a 21923i bk8: 0a 21923i bk9: 0a 21924i bk10: 0a 21924i bk11: 0a 21924i bk12: 0a 21925i bk13: 0a 21925i bk14: 56a 21797i bk15: 56a 21704i 
dram_util_bins: 0 0 0 0 0 0 0 0 0 0
dram_eff_bins: 0 0 0 0 0 0 0 0 0 0
mrqq: max=9 avg=0.0793651
Memory Partition 1: 
Cache L2_bank_002:
MSHR contents

Cache L2_bank_003:
MSHR contents

In Dram Latency Queue (total = 0): 
DRAM[1]: 16 bks, busW=4 BL=8 CL=12, tRRD=2 tCCD=6, tRCD=12 tRAS=28 tRP=12 tRC=40
n_cmd=21924 n_nop=21718 n_act=7 n_pre=0 n_req=52 n_rd=196 n_write=3 bw_util=0.01815
n_activity=520 dram_eff=0.7654
bk0: 36a 21787i bk1: 36a 21727i bk2: 4a 21898i bk3: 0a 21922i bk4: 4a 21898i bk5: 0a 21922i bk6: 0a 21922i bk7: 0a 21923i bk8: 0a 21925i bk9: 0a 21925i bk10: 0a 21925i bk11: 4a 21899i bk12: 0a 21923i bk13: 0a 21924i bk14: 56a 21794i bk15: 56a 21699i 
dram_util_bins: 0 0 0 0 0 0 0 0 0 0
dram_eff_bins: 0 0 0 0 0 0 0 0 0 0
mrqq: max=10 avg=0.0799124
Memory Partition 2: 
Cache L2_bank_004:
MSHR contents

Cache L2_bank_005:
MSHR contents

In Dram Latency Queue (total = 0): 
DRAM[2]: 16 bks, busW=4 BL=8 CL=12, tRRD=2 tCCD=6, tRCD=12 tRAS=28 tRP=12 tRC=40
n_cmd=21924 n_nop=21736 n_act=4 n_pre=0 n_req=46 n_rd=184 n_write=0 bw_util=0.01679
n_activity=400 dram_eff=0.92
bk0: 36a 21771i bk1: 36a 21713i bk2: 0a 21923i bk3: 0a 21924i bk4: 0a 21924i bk5: 0a 21924i bk6: 0a 21924i bk7: 0a 21924i bk8: 0a 21924i bk9: 0a 21924i bk10: 0a 21924i bk11: 0a 21924i bk12: 0a 21924i bk13: 0a 21925i bk14: 56a 21796i bk15: 56a 21704i 
dram_util_bins: 0 0 0 0 0 0 0 0 0 0
dram_eff_bins: 0 0 0 0 0 0 0 0 0 0
mrqq: max=10 avg=0.0858876
Memory Partition 3: 
Cache L2_bank_006:
MSHR contents

Cache L2_bank_007:
MSHR contents

In Dram Latency Queue (total = 0): 
DRAM[3]: 16 bks, busW=4 BL=8 CL=12, tRRD=2 tCCD=6, tRCD=12 tRAS=28 tRP=12 tRC=40
n_cmd=21924 n_nop=21713 n_act=8 n_pre=1 n_req=52 n_rd=200 n_write=2 bw_util=0.01843
n_activity=572 dram_eff=0.7063
bk0: 36a 21764i bk1: 36a 21711i bk2: 0a 21924i bk3: 4a 21898i bk4: 0a 21924i bk5: 0a 21924i bk6: 8a 21873i bk7: 4a 21896i bk8: 0a 21922i bk9: 0a 21922i bk10: 0a 21924i bk11: 0a 21924i bk12: 0a 21924i bk13: 0a 21925i bk14: 56a 21795i bk15: 56a 21698i 
dram_util_bins: 0 0 0 0 0 0 0 0 0 0
dram_eff_bins: 0 0 0 0 0 0 0 0 0 0
mrqq: max=11 avg=0.0989783
Memory Partition 4: 
Cache L2_bank_008:
MSHR contents

Cache L2_bank_009:
MSHR contents

In Dram Latency Queue (total = 0): 
DRAM[4]: 16 bks, busW=4 BL=8 CL=12, tRRD=2 tCCD=6, tRCD=12 tRAS=28 tRP=12 tRC=40
n_cmd=21924 n_nop=21706 n_act=9 n_pre=3 n_req=53 n_rd=204 n_write=2 bw_util=0.01879
n_activity=624 dram_eff=0.6603
bk0: 36a 21754i bk1: 36a 21700i bk2: 4a 21897i bk3: 0a 21922i bk4: 4a 21904i bk5: 0a 21924i bk6: 0a 21924i bk7: 0a 21924i bk8: 0a 21924i bk9: 0a 21924i bk10: 0a 21924i bk11: 0a 21925i bk12: 0a 21925i bk13: 0a 21927i bk14: 60a 21773i bk15: 64a 21629i 
dram_util_bins: 0 0 0 0 0 0 0 0 0 0
dram_eff_bins: 0 0 0 0 0 0 0 0 0 0
mrqq: max=11 avg=0.0982941
Memory Partition 5: 
Cache L2_bank_010:
MSHR contents
MSHR: tag=0x8050a400, atomic=0 1 entries : 0x7fcb03752c10 :  mf: uid= 50823, sid01:w00, part=5, addr=0x8050a440, load , size=32, unknown  status = IN_PARTITION_DRAM (234211), 

Cache L2_bank_011:
MSHR contents

In Dram Latency Queue (total = 0): 
DRAM[5]: 16 bks, busW=4 BL=8 CL=12, tRRD=2 tCCD=6, tRCD=12 tRAS=28 tRP=12 tRC=40
n_cmd=21924 n_nop=21692 n_act=10 n_pre=3 n_req=58 n_rd=215 n_write=4 bw_util=0.01998
n_activity=672 dram_eff=0.6518
bk0: 36a 21780i bk1: 40a 21709i bk2: 4a 21895i bk3: 4a 21895i bk4: 0a 21921i bk5: 0a 21923i bk6: 3a 21900i bk7: 0a 21923i bk8: 0a 21924i bk9: 0a 21924i bk10: 0a 21925i bk11: 0a 21927i bk12: 0a 21927i bk13: 0a 21928i bk14: 64a 21766i bk15: 64a 21653i 
dram_util_bins: 0 0 0 0 0 0 0 0 0 0
dram_eff_bins: 0 0 0 0 0 0 0 0 0 0
mrqq: max=10 avg=0.079137
Memory Partition 6: 
Cache L2_bank_012:
MSHR contents

Cache L2_bank_013:
MSHR contents

In Dram Latency Queue (total = 0): 
DRAM[6]: 16 bks, busW=4 BL=8 CL=12, tRRD=2 tCCD=6, tRCD=12 tRAS=28 tRP=12 tRC=40
n_cmd=21924 n_nop=21718 n_act=5 n_pre=0 n_req=51 n_rd=200 n_write=1 bw_util=0.01834
n_activity=505 dram_eff=0.796
bk0: 40a 21730i bk1: 36a 21699i bk2: 0a 21922i bk3: 0a 21924i bk4: 0a 21925i bk5: 0a 21925i bk6: 0a 21925i bk7: 4a 21905i bk8: 0a 21923i bk9: 0a 21923i bk10: 0a 21923i bk11: 0a 21923i bk12: 0a 21924i bk13: 0a 21925i bk14: 60a 21786i bk15: 60a 21682i 
dram_util_bins: 0 0 0 0 0 0 0 0 0 0
dram_eff_bins: 0 0 0 0 0 0 0 0 0 0
mrqq: max=11 avg=0.0820106
Memory Partition 7: 
Cache L2_bank_014:
MSHR contents

Cache L2_bank_015:
MSHR contents

In Dram Latency Queue (total = 0): 
DRAM[7]: 16 bks, busW=4 BL=8 CL=12, tRRD=2 tCCD=6, tRCD=12 tRAS=28 tRP=12 tRC=40
n_cmd=21924 n_nop=21711 n_act=7 n_pre=0 n_req=53 n_rd=204 n_write=2 bw_util=0.01879
n_activity=536 dram_eff=0.7687
bk0: 36a 21760i bk1: 36a 21709i bk2: 4a 21897i bk3: 0a 21922i bk4: 4a 21904i bk5: 0a 21923i bk6: 0a 21924i bk7: 0a 21924i bk8: 4a 21898i bk9: 0a 21922i bk10: 0a 21922i bk11: 0a 21924i bk12: 0a 21925i bk13: 0a 21926i bk14: 60a 21788i bk15: 60a 21684i 
dram_util_bins: 0 0 0 0 0 0 0 0 0 0
dram_eff_bins: 0 0 0 0 0 0 0 0 0 0
mrqq: max=12 avg=0.102536
Memory Partition 8: 
Cache L2_bank_016:
MSHR contents

Cache L2_bank_017:
MSHR contents

In Dram Latency Queue (total = 0): 
DRAM[8]: 16 bks, busW=4 BL=8 CL=12, tRRD=2 tCCD=6, tRCD=12 tRAS=28 tRP=12 tRC=40
n_cmd=21924 n_nop=21716 n_act=7 n_pre=0 n_req=51 n_rd=200 n_write=1 bw_util=0.01834
n_activity=538 dram_eff=0.7472
bk0: 32a 21773i bk1: 32a 21720i bk2: 0a 21922i bk3: 0a 21924i bk4: 0a 21925i bk5: 8a 21898i bk6: 4a 21904i bk7: 0a 21923i bk8: 0a 21924i bk9: 4a 21899i bk10: 0a 21923i bk11: 0a 21923i bk12: 0a 21924i bk13: 0a 21925i bk14: 60a 21790i bk15: 60a 21680i 
dram_util_bins: 0 0 0 0 0 0 0 0 0 0
dram_eff_bins: 0 0 0 0 0 0 0 0 0 0
mrqq: max=11 avg=0.0896278
Memory Partition 9: 
Cache L2_bank_018:
MSHR contents

Cache L2_bank_019:
MSHR contents

In Dram Latency Queue (total = 0): 
DRAM[9]: 16 bks, busW=4 BL=8 CL=12, tRRD=2 tCCD=6, tRCD=12 tRAS=28 tRP=12 tRC=40
n_cmd=21924 n_nop=21731 n_act=5 n_pre=0 n_req=47 n_rd=188 n_write=0 bw_util=0.01715
n_activity=460 dram_eff=0.8174
bk0: 32a 21790i bk1: 32a 21737i bk2: 0a 21923i bk3: 0a 21924i bk4: 4a 21904i bk5: 0a 21923i bk6: 0a 21923i bk7: 0a 21923i bk8: 0a 21924i bk9: 0a 21924i bk10: 0a 21924i bk11: 0a 21924i bk12: 0a 21924i bk13: 0a 21926i bk14: 60a 21788i bk15: 60a 21682i 
dram_util_bins: 0 0 0 0 0 0 0 0 0 0
dram_eff_bins: 0 0 0 0 0 0 0 0 0 0
mrqq: max=10 avg=0.0790458
Memory Partition 10: 
Cache L2_bank_020:
MSHR contents

Cache L2_bank_021:
MSHR contents

In Dram Latency Queue (total = 0): 
DRAM[10]: 16 bks, busW=4 BL=8 CL=12, tRRD=2 tCCD=6, tRCD=12 tRAS=28 tRP=12 tRC=40
n_cmd=21924 n_nop=21724 n_act=6 n_pre=1 n_req=49 n_rd=192 n_write=1 bw_util=0.01761
n_activity=512 dram_eff=0.7539
bk0: 32a 21778i bk1: 32a 21727i bk2: 0a 21922i bk3: 0a 21923i bk4: 4a 21904i bk5: 0a 21923i bk6: 0a 21923i bk7: 0a 21923i bk8: 0a 21923i bk9: 0a 21925i bk10: 0a 21925i bk11: 0a 21925i bk12: 0a 21925i bk13: 0a 21926i bk14: 64a 21749i bk15: 60a 21682i 
dram_util_bins: 0 0 0 0 0 0 0 0 0 0
dram_eff_bins: 0 0 0 0 0 0 0 0 0 0
mrqq: max=10 avg=0.067141

========= L2 cache stats =========
L2_cache_bank[0]: Access = 128, Miss = 25, Miss_rate = 0.195, Pending_hits = 96, Reservation_fails = 0
L2_cache_bank[1]: Access = 92, Miss = 23, Miss_rate = 0.250, Pending_hits = 69, Reservation_fails = 0
L2_cache_bank[2]: Access = 94, Miss = 25, Miss_rate = 0.266, Pending_hits = 69, Reservation_fails = 0
L2_cache_bank[3]: Access = 93, Miss = 24, Miss_rate = 0.258, Pending_hits = 69, Reservation_fails = 0
L2_cache_bank[4]: Access = 92, Miss = 23, Miss_rate = 0.250, Pending_hits = 69, Reservation_fails = 0
L2_cache_bank[5]: Access = 92, Miss = 23, Miss_rate = 0.250, Pending_hits = 69, Reservation_fails = 0
L2_cache_bank[6]: Access = 118, Miss = 25, Miss_rate = 0.212, Pending_hits = 69, Reservation_fails = 0
L2_cache_bank[7]: Access = 94, Miss = 25, Miss_rate = 0.266, Pending_hits = 69, Reservation_fails = 0
L2_cache_bank[8]: Access = 122, Miss = 26, Miss_rate = 0.213, Pending_hits = 96, Reservation_fails = 0
L2_cache_bank[9]: Access = 121, Miss = 25, Miss_rate = 0.207, Pending_hits = 96, Reservation_fails = 0
L2_cache_bank[10]: Access = 100, Miss = 27, Miss_rate = 0.270, Pending_hits = 72, Reservation_fails = 0
L2_cache_bank[11]: Access = 126, Miss = 27, Miss_rate = 0.214, Pending_hits = 99, Reservation_fails = 0
L2_cache_bank[12]: Access = 97, Miss = 25, Miss_rate = 0.258, Pending_hits = 72, Reservation_fails = 0
L2_cache_bank[13]: Access = 97, Miss = 25, Miss_rate = 0.258, Pending_hits = 72, Reservation_fails = 0
L2_cache_bank[14]: Access = 99, Miss = 27, Miss_rate = 0.273, Pending_hits = 72, Reservation_fails = 0
L2_cache_bank[15]: Access = 96, Miss = 24, Miss_rate = 0.250, Pending_hits = 72, Reservation_fails = 0
L2_cache_bank[16]: Access = 93, Miss = 24, Miss_rate = 0.258, Pending_hits = 69, Reservation_fails = 0
L2_cache_bank[17]: Access = 95, Miss = 26, Miss_rate = 0.274, Pending_hits = 69, Reservation_fails = 0
L2_cache_bank[18]: Access = 93, Miss = 24, Miss_rate = 0.258, Pending_hits = 69, Reservation_fails = 0
L2_cache_bank[19]: Access = 92, Miss = 23, Miss_rate = 0.250, Pending_hits = 69, Reservation_fails = 0
L2_cache_bank[20]: Access = 94, Miss = 25, Miss_rate = 0.266, Pending_hits = 69, Reservation_fails = 0
L2_cache_bank[21]: Access = 92, Miss = 23, Miss_rate = 0.250, Pending_hits = 69, Reservation_fails = 0
L2_total_cache_accesses = 2220
L2_total_cache_misses = 544
L2_total_cache_miss_rate = 0.2450
L2_total_cache_pending_hits = 1644
L2_total_cache_reservation_fails = 0
L2_total_cache_breakdown:
	L2_cache_stats_breakdown[GLOBAL_ACC_R][HIT] = 31
	L2_cache_stats_breakdown[GLOBAL_ACC_R][HIT_RESERVED] = 1536
	L2_cache_stats_breakdown[GLOBAL_ACC_R][MISS] = 523
	L2_cache_stats_breakdown[GLOBAL_ACC_R][RESERVATION_FAIL] = 0
	L2_cache_stats_breakdown[LOCAL_ACC_R][HIT] = 0
	L2_cache_stats_breakdown[LOCAL_ACC_R][HIT_RESERVED] = 0
	L2_cache_stats_breakdown[LOCAL_ACC_R][MISS] = 0
	L2_cache_stats_breakdown[LOCAL_ACC_R][RESERVATION_FAIL] = 0
	L2_cache_stats_breakdown[CONST_ACC_R][HIT] = 0
	L2_cache_stats_breakdown[CONST_ACC_R][HIT_RESERVED] = 27
	L2_cache_stats_breakdown[CONST_ACC_R][MISS] = 1
	L2_cache_stats_breakdown[CONST_ACC_R][RESERVATION_FAIL] = 0
	L2_cache_stats_breakdown[TEXTURE_ACC_R][HIT] = 0
	L2_cache_stats_breakdown[TEXTURE_ACC_R][HIT_RESERVED] = 0
	L2_cache_stats_breakdown[TEXTURE_ACC_R][MISS] = 0
	L2_cache_stats_breakdown[TEXTURE_ACC_R][RESERVATION_FAIL] = 0
	L2_cache_stats_breakdown[GLOBAL_ACC_W][HIT] = 1
	L2_cache_stats_breakdown[GLOBAL_ACC_W][HIT_RESERVED] = 0
	L2_cache_stats_breakdown[GLOBAL_ACC_W][MISS] = 16
	L2_cache_stats_breakdown[GLOBAL_ACC_W][RESERVATION_FAIL] = 0
	L2_cache_stats_breakdown[LOCAL_ACC_W][HIT] = 0
	L2_cache_stats_breakdown[LOCAL_ACC_W][HIT_RESERVED] = 0
	L2_cache_stats_breakdown[LOCAL_ACC_W][MISS] = 0
	L2_cache_stats_breakdown[LOCAL_ACC_W][RESERVATION_FAIL] = 0
	L2_cache_stats_breakdown[L1_WRBK_ACC][HIT] = 0
	L2_cache_stats_breakdown[L1_WRBK_ACC][HIT_RESERVED] = 0
	L2_cache_stats_breakdown[L1_WRBK_ACC][MISS] = 0
	L2_cache_stats_breakdown[L1_WRBK_ACC][RESERVATION_FAIL] = 0
	L2_cache_stats_breakdown[L2_WRBK_ACC][HIT] = 0
	L2_cache_stats_breakdown[L2_WRBK_ACC][HIT_RESERVED] = 0
	L2_cache_stats_breakdown[L2_WRBK_ACC][MISS] = 0
	L2_cache_stats_breakdown[L2_WRBK_ACC][RESERVATION_FAIL] = 0
	L2_cache_stats_breakdown[INST_ACC_R][HIT] = 0
	L2_cache_stats_breakdown[INST_ACC_R][HIT_RESERVED] = 81
	L2_cache_stats_breakdown[INST_ACC_R][MISS] = 4
	L2_cache_stats_breakdown[INST_ACC_R][RESERVATION_FAIL] = 0
	L2_cache_stats_breakdown[L1_WR_ALLOC_R][HIT] = 0
	L2_cache_stats_breakdown[L1_WR_ALLOC_R][HIT_RESERVED] = 0
	L2_cache_stats_breakdown[L1_WR_ALLOC_R][MISS] = 0
	L2_cache_stats_breakdown[L1_WR_ALLOC_R][RESERVATION_FAIL] = 0
	L2_cache_stats_breakdown[L2_WR_ALLOC_R][HIT] = 0
	L2_cache_stats_breakdown[L2_WR_ALLOC_R][HIT_RESERVED] = 0
	L2_cache_stats_breakdown[L2_WR_ALLOC_R][MISS] = 0
	L2_cache_stats_breakdown[L2_WR_ALLOC_R][RESERVATION_FAIL] = 0
	L2_cache_stats_breakdown[GLOBAL_ACC_R][TOTAL_ACCESS] = 2090
	L2_cache_stats_breakdown[CONST_ACC_R][TOTAL_ACCESS] = 28
	L2_cache_stats_breakdown[GLOBAL_ACC_W][TOTAL_ACCESS] = 17
	L2_cache_stats_breakdown[INST_ACC_R][TOTAL_ACCESS] = 85
L2_cache_data_port_util = 0.000
L2_cache_fill_port_util = 0.008

icnt_total_pkts_mem_to_simt=4706
icnt_total_pkts_simt_to_mem=2237
LD_mem_lat_dist  0 0 0 0 0 0 0 0 0 0 0 0 0 0 0 0 0 0 0 0 0 0 0 0 0 0 0
ST_mem_lat_dist  0 0 0 0 0 0 0 0 0 0 0 0 0 0 0 0 0 0 0 0 0 0 0 0 0 0 0
----------------------------Interconnect-DETAILS--------------------------------
Class 0:
Packet latency average = 27.4095
	minimum = 6
	maximum = 96
Network latency average = 18.8957
	minimum = 6
	maximum = 60
Slowest packet = 27
Flit latency average = 16.7096
	minimum = 6
	maximum = 60
Slowest flit = 27
Fragmentation average = 0
	minimum = 0
	maximum = 0
Injected packet rate average = 0.00376032
	minimum = 0.00287953 (at node 0)
	maximum = 0.00542028 (at node 1)
Accepted packet rate average = 0.00376032
	minimum = 0.00287953 (at node 0)
	maximum = 0.00542028 (at node 1)
Injected flit rate average = 0.00588016
	minimum = 0.00287953 (at node 0)
	maximum = 0.0141436 (at node 39)
Accepted flit rate average= 0.00588016
	minimum = 0.00389583 (at node 29)
	maximum = 0.0106712 (at node 1)
Injected packet length average = 1.56374
Accepted packet length average = 1.56374
Total in-flight flits = 0 (0 measured)
====== Overall Traffic Statistics ======
====== Traffic class 0 ======
Packet latency average = 27.4095 (1 samples)
	minimum = 6 (1 samples)
	maximum = 96 (1 samples)
Network latency average = 18.8957 (1 samples)
	minimum = 6 (1 samples)
	maximum = 60 (1 samples)
Flit latency average = 16.7096 (1 samples)
	minimum = 6 (1 samples)
	maximum = 60 (1 samples)
Fragmentation average = 0 (1 samples)
	minimum = 0 (1 samples)
	maximum = 0 (1 samples)
Injected packet rate average = 0.00376032 (1 samples)
	minimum = 0.00287953 (1 samples)
	maximum = 0.00542028 (1 samples)
Accepted packet rate average = 0.00376032 (1 samples)
	minimum = 0.00287953 (1 samples)
	maximum = 0.00542028 (1 samples)
Injected flit rate average = 0.00588016 (1 samples)
	minimum = 0.00287953 (1 samples)
	maximum = 0.0141436 (1 samples)
Accepted flit rate average = 0.00588016 (1 samples)
	minimum = 0.00389583 (1 samples)
	maximum = 0.0106712 (1 samples)
Injected packet size average = 1.56374 (1 samples)
Accepted packet size average = 1.56374 (1 samples)
Hops average = 1 (1 samples)
----------------------------END-of-Interconnect-DETAILS-------------------------


gpgpu_simulation_time = 0 days, 0 hrs, 0 min, 8 sec (8 sec)
gpgpu_simulation_rate = 155672 (inst/sec)
gpgpu_simulation_rate = 29276 (cycle/sec)

GPGPU-Sim PTX: cudaLaunch for 0x0x401649 (mode=performance simulation) on stream 0
GPGPU-Sim PTX: pushing kernel '_Z7Kernel2PbS_S_S_i' to stream 0, gridDim= (128,1,1) blockDim = (512,1,1) 
GPGPU-Sim uArch: Shader 19 bind to kernel 2 '_Z7Kernel2PbS_S_S_i'
GPGPU-Sim uArch: CTA/core = 4, limited by: threads
GPGPU-Sim uArch: Shader 20 bind to kernel 2 '_Z7Kernel2PbS_S_S_i'
GPGPU-Sim uArch: Shader 21 bind to kernel 2 '_Z7Kernel2PbS_S_S_i'
GPGPU-Sim uArch: Shader 22 bind to kernel 2 '_Z7Kernel2PbS_S_S_i'
GPGPU-Sim uArch: Shader 23 bind to kernel 2 '_Z7Kernel2PbS_S_S_i'
GPGPU-Sim uArch: Shader 24 bind to kernel 2 '_Z7Kernel2PbS_S_S_i'
GPGPU-Sim uArch: Shader 25 bind to kernel 2 '_Z7Kernel2PbS_S_S_i'
GPGPU-Sim uArch: Shader 26 bind to kernel 2 '_Z7Kernel2PbS_S_S_i'
GPGPU-Sim uArch: Shader 27 bind to kernel 2 '_Z7Kernel2PbS_S_S_i'
GPGPU-Sim uArch: Shader 0 bind to kernel 2 '_Z7Kernel2PbS_S_S_i'
GPGPU-Sim uArch: Shader 1 bind to kernel 2 '_Z7Kernel2PbS_S_S_i'
GPGPU-Sim uArch: Shader 2 bind to kernel 2 '_Z7Kernel2PbS_S_S_i'
GPGPU-Sim uArch: Shader 3 bind to kernel 2 '_Z7Kernel2PbS_S_S_i'
GPGPU-Sim uArch: Shader 4 bind to kernel 2 '_Z7Kernel2PbS_S_S_i'
GPGPU-Sim uArch: Shader 5 bind to kernel 2 '_Z7Kernel2PbS_S_S_i'
GPGPU-Sim uArch: Shader 6 bind to kernel 2 '_Z7Kernel2PbS_S_S_i'
GPGPU-Sim uArch: Shader 7 bind to kernel 2 '_Z7Kernel2PbS_S_S_i'
GPGPU-Sim uArch: Shader 8 bind to kernel 2 '_Z7Kernel2PbS_S_S_i'
GPGPU-Sim uArch: Shader 9 bind to kernel 2 '_Z7Kernel2PbS_S_S_i'
GPGPU-Sim uArch: Shader 10 bind to kernel 2 '_Z7Kernel2PbS_S_S_i'
GPGPU-Sim uArch: Shader 11 bind to kernel 2 '_Z7Kernel2PbS_S_S_i'
GPGPU-Sim uArch: Shader 12 bind to kernel 2 '_Z7Kernel2PbS_S_S_i'
GPGPU-Sim uArch: Shader 13 bind to kernel 2 '_Z7Kernel2PbS_S_S_i'
GPGPU-Sim uArch: Shader 14 bind to kernel 2 '_Z7Kernel2PbS_S_S_i'
GPGPU-Sim uArch: Shader 15 bind to kernel 2 '_Z7Kernel2PbS_S_S_i'
GPGPU-Sim uArch: Shader 16 bind to kernel 2 '_Z7Kernel2PbS_S_S_i'
GPGPU-Sim uArch: Shader 17 bind to kernel 2 '_Z7Kernel2PbS_S_S_i'
GPGPU-Sim uArch: Shader 18 bind to kernel 2 '_Z7Kernel2PbS_S_S_i'
Destroy streams for kernel 2: size 0
kernel_name = _Z7Kernel2PbS_S_S_i 
kernel_launch_uid = 2 
gpu_sim_cycle = 2085
gpu_sim_insn = 1114192
gpu_ipc =     534.3846
gpu_tot_sim_cycle = 458447
gpu_tot_sim_insn = 2359568
gpu_tot_ipc =       5.1469
gpu_tot_issued_cta = 256
max_total_param_size = 0
gpu_stall_dramfull = 178
gpu_stall_icnt2sh    = 6956
partiton_reqs_in_parallel = 45692
partiton_reqs_in_parallel_total    = 259776
partiton_level_parallism =      21.9146
partiton_level_parallism_total  =       0.6663
partiton_reqs_in_parallel_util = 45692
partiton_reqs_in_parallel_util_total    = 259776
gpu_sim_cycle_parition_util = 2085
gpu_tot_sim_cycle_parition_util    = 11808
partiton_level_parallism_util =      21.9146
partiton_level_parallism_util_total  =      21.9872
partiton_replys_in_parallel = 2136
partiton_replys_in_parallel_total    = 2220
L2_BW  =      97.1025 GB/Sec
L2_BW_total  =       0.9006 GB/Sec
gpu_total_sim_rate=181505

========= Core cache stats =========
L1I_cache:
	L1I_total_cache_accesses = 43152
	L1I_total_cache_misses = 5457
	L1I_total_cache_miss_rate = 0.1265
	L1I_total_cache_pending_hits = 0
	L1I_total_cache_reservation_fails = 15920
L1D_cache:
	L1D_cache_core[0]: Access = 0, Miss = 0, Miss_rate = -nan, Pending_hits = 0, Reservation_fails = 0
	L1D_cache_core[1]: Access = 0, Miss = 0, Miss_rate = -nan, Pending_hits = 0, Reservation_fails = 0
	L1D_cache_core[2]: Access = 0, Miss = 0, Miss_rate = -nan, Pending_hits = 0, Reservation_fails = 0
	L1D_cache_core[3]: Access = 0, Miss = 0, Miss_rate = -nan, Pending_hits = 0, Reservation_fails = 0
	L1D_cache_core[4]: Access = 0, Miss = 0, Miss_rate = -nan, Pending_hits = 0, Reservation_fails = 0
	L1D_cache_core[5]: Access = 0, Miss = 0, Miss_rate = -nan, Pending_hits = 0, Reservation_fails = 0
	L1D_cache_core[6]: Access = 0, Miss = 0, Miss_rate = -nan, Pending_hits = 0, Reservation_fails = 0
	L1D_cache_core[7]: Access = 0, Miss = 0, Miss_rate = -nan, Pending_hits = 0, Reservation_fails = 0
	L1D_cache_core[8]: Access = 0, Miss = 0, Miss_rate = -nan, Pending_hits = 0, Reservation_fails = 0
	L1D_cache_core[9]: Access = 0, Miss = 0, Miss_rate = -nan, Pending_hits = 0, Reservation_fails = 0
	L1D_cache_core[10]: Access = 0, Miss = 0, Miss_rate = -nan, Pending_hits = 0, Reservation_fails = 0
	L1D_cache_core[11]: Access = 0, Miss = 0, Miss_rate = -nan, Pending_hits = 0, Reservation_fails = 0
	L1D_cache_core[12]: Access = 0, Miss = 0, Miss_rate = -nan, Pending_hits = 0, Reservation_fails = 0
	L1D_cache_core[13]: Access = 0, Miss = 0, Miss_rate = -nan, Pending_hits = 0, Reservation_fails = 0
	L1D_cache_core[14]: Access = 0, Miss = 0, Miss_rate = -nan, Pending_hits = 0, Reservation_fails = 0
	L1D_cache_core[15]: Access = 0, Miss = 0, Miss_rate = -nan, Pending_hits = 0, Reservation_fails = 0
	L1D_cache_core[16]: Access = 0, Miss = 0, Miss_rate = -nan, Pending_hits = 0, Reservation_fails = 0
	L1D_cache_core[17]: Access = 0, Miss = 0, Miss_rate = -nan, Pending_hits = 0, Reservation_fails = 0
	L1D_cache_core[18]: Access = 0, Miss = 0, Miss_rate = -nan, Pending_hits = 0, Reservation_fails = 0
	L1D_cache_core[19]: Access = 0, Miss = 0, Miss_rate = -nan, Pending_hits = 0, Reservation_fails = 0
	L1D_cache_core[20]: Access = 0, Miss = 0, Miss_rate = -nan, Pending_hits = 0, Reservation_fails = 0
	L1D_cache_core[21]: Access = 0, Miss = 0, Miss_rate = -nan, Pending_hits = 0, Reservation_fails = 0
	L1D_cache_core[22]: Access = 0, Miss = 0, Miss_rate = -nan, Pending_hits = 0, Reservation_fails = 0
	L1D_cache_core[23]: Access = 0, Miss = 0, Miss_rate = -nan, Pending_hits = 0, Reservation_fails = 0
	L1D_cache_core[24]: Access = 0, Miss = 0, Miss_rate = -nan, Pending_hits = 0, Reservation_fails = 0
	L1D_cache_core[25]: Access = 0, Miss = 0, Miss_rate = -nan, Pending_hits = 0, Reservation_fails = 0
	L1D_cache_core[26]: Access = 0, Miss = 0, Miss_rate = -nan, Pending_hits = 0, Reservation_fails = 0
	L1D_cache_core[27]: Access = 0, Miss = 0, Miss_rate = -nan, Pending_hits = 0, Reservation_fails = 0
	L1D_total_cache_accesses = 0
	L1D_total_cache_misses = 0
	L1D_total_cache_pending_hits = 0
	L1D_total_cache_reservation_fails = 0
	L1D_cache_data_port_util = 0.000
	L1D_cache_fill_port_util = 0.000
L1C_cache:
	L1C_total_cache_accesses = 24576
	L1C_total_cache_misses = 1792
	L1C_total_cache_miss_rate = 0.0729
	L1C_total_cache_pending_hits = 0
	L1C_total_cache_reservation_fails = 4886
L1T_cache:
	L1T_total_cache_accesses = 0
	L1T_total_cache_misses = 0
	L1T_total_cache_pending_hits = 0
	L1T_total_cache_reservation_fails = 0

Total_core_cache_stats:
	Total_core_cache_stats_breakdown[GLOBAL_ACC_R][HIT] = 0
	Total_core_cache_stats_breakdown[GLOBAL_ACC_R][HIT_RESERVED] = 0
	Total_core_cache_stats_breakdown[GLOBAL_ACC_R][MISS] = 0
	Total_core_cache_stats_breakdown[GLOBAL_ACC_R][RESERVATION_FAIL] = 0
	Total_core_cache_stats_breakdown[LOCAL_ACC_R][HIT] = 0
	Total_core_cache_stats_breakdown[LOCAL_ACC_R][HIT_RESERVED] = 0
	Total_core_cache_stats_breakdown[LOCAL_ACC_R][MISS] = 0
	Total_core_cache_stats_breakdown[LOCAL_ACC_R][RESERVATION_FAIL] = 0
	Total_core_cache_stats_breakdown[CONST_ACC_R][HIT] = 22784
	Total_core_cache_stats_breakdown[CONST_ACC_R][HIT_RESERVED] = 0
	Total_core_cache_stats_breakdown[CONST_ACC_R][MISS] = 1792
	Total_core_cache_stats_breakdown[CONST_ACC_R][RESERVATION_FAIL] = 4886
	Total_core_cache_stats_breakdown[TEXTURE_ACC_R][HIT] = 0
	Total_core_cache_stats_breakdown[TEXTURE_ACC_R][HIT_RESERVED] = 0
	Total_core_cache_stats_breakdown[TEXTURE_ACC_R][MISS] = 0
	Total_core_cache_stats_breakdown[TEXTURE_ACC_R][RESERVATION_FAIL] = 0
	Total_core_cache_stats_breakdown[GLOBAL_ACC_W][HIT] = 0
	Total_core_cache_stats_breakdown[GLOBAL_ACC_W][HIT_RESERVED] = 0
	Total_core_cache_stats_breakdown[GLOBAL_ACC_W][MISS] = 0
	Total_core_cache_stats_breakdown[GLOBAL_ACC_W][RESERVATION_FAIL] = 0
	Total_core_cache_stats_breakdown[LOCAL_ACC_W][HIT] = 0
	Total_core_cache_stats_breakdown[LOCAL_ACC_W][HIT_RESERVED] = 0
	Total_core_cache_stats_breakdown[LOCAL_ACC_W][MISS] = 0
	Total_core_cache_stats_breakdown[LOCAL_ACC_W][RESERVATION_FAIL] = 0
	Total_core_cache_stats_breakdown[L1_WRBK_ACC][HIT] = 0
	Total_core_cache_stats_breakdown[L1_WRBK_ACC][HIT_RESERVED] = 0
	Total_core_cache_stats_breakdown[L1_WRBK_ACC][MISS] = 0
	Total_core_cache_stats_breakdown[L1_WRBK_ACC][RESERVATION_FAIL] = 0
	Total_core_cache_stats_breakdown[L2_WRBK_ACC][HIT] = 0
	Total_core_cache_stats_breakdown[L2_WRBK_ACC][HIT_RESERVED] = 0
	Total_core_cache_stats_breakdown[L2_WRBK_ACC][MISS] = 0
	Total_core_cache_stats_breakdown[L2_WRBK_ACC][RESERVATION_FAIL] = 0
	Total_core_cache_stats_breakdown[INST_ACC_R][HIT] = 37695
	Total_core_cache_stats_breakdown[INST_ACC_R][HIT_RESERVED] = 0
	Total_core_cache_stats_breakdown[INST_ACC_R][MISS] = 5457
	Total_core_cache_stats_breakdown[INST_ACC_R][RESERVATION_FAIL] = 15920
	Total_core_cache_stats_breakdown[L1_WR_ALLOC_R][HIT] = 0
	Total_core_cache_stats_breakdown[L1_WR_ALLOC_R][HIT_RESERVED] = 0
	Total_core_cache_stats_breakdown[L1_WR_ALLOC_R][MISS] = 0
	Total_core_cache_stats_breakdown[L1_WR_ALLOC_R][RESERVATION_FAIL] = 0
	Total_core_cache_stats_breakdown[L2_WR_ALLOC_R][HIT] = 0
	Total_core_cache_stats_breakdown[L2_WR_ALLOC_R][HIT_RESERVED] = 0
	Total_core_cache_stats_breakdown[L2_WR_ALLOC_R][MISS] = 0
	Total_core_cache_stats_breakdown[L2_WR_ALLOC_R][RESERVATION_FAIL] = 0
	Total_core_cache_stats_breakdown[CONST_ACC_R][TOTAL_ACCESS] = 24576
	Total_core_cache_stats_breakdown[INST_ACC_R][TOTAL_ACCESS] = 43152
Shader 0 warp_id issue ditsribution:
warp_id:
0, 1, 2, 3, 4, 5, 6, 7, 8, 9, 10, 11, 12, 13, 14, 15, 16, 17, 18, 19, 20, 21, 22, 23, 24, 25, 26, 27, 28, 29, 30, 31, 32, 33, 34, 35, 36, 37, 38, 39, 40, 41, 42, 43, 44, 45, 46, 47, 48, 49, 50, 51, 52, 53, 54, 55, 56, 57, 58, 59, 60, 61, 62, 63, 
distro:
65, 65, 64, 65, 64, 65, 64, 65, 80, 65, 65, 65, 65, 65, 65, 65, 44, 44, 44, 44, 44, 44, 44, 44, 44, 44, 44, 44, 44, 44, 44, 44, 44, 44, 44, 44, 44, 44, 44, 44, 44, 44, 44, 59, 44, 44, 44, 44, 44, 44, 44, 44, 44, 44, 44, 44, 44, 44, 44, 44, 44, 44, 44, 44, 
gpgpu_n_tot_thrd_icount = 2499680
gpgpu_n_tot_w_icount = 78115
gpgpu_n_stall_shd_mem = 5219
gpgpu_n_mem_read_local = 0
gpgpu_n_mem_write_local = 0
gpgpu_n_mem_read_global = 4138
gpgpu_n_mem_write_global = 49
gpgpu_n_mem_texture = 0
gpgpu_n_mem_const = 28
gpgpu_n_load_insn  = 131114
gpgpu_n_store_insn = 49
gpgpu_n_shmem_insn = 0
gpgpu_n_tex_insn = 0
gpgpu_n_const_mem_insn = 0
gpgpu_n_param_mem_insn = 786432
gpgpu_n_shmem_bkconflict = 0
gpgpu_n_cache_bkconflict = 0
gpgpu_n_intrawarp_mshr_merge = 0
gpgpu_n_cmem_portconflict = 4886
gpgpu_stall_shd_mem[c_mem][bk_conf] = 4886
gpgpu_stall_shd_mem[c_mem][mshr_rc] = 0
gpgpu_stall_shd_mem[c_mem][icnt_rc] = 0
gpgpu_stall_shd_mem[c_mem][data_port_stall] = 0
gpgpu_stall_shd_mem[t_mem][mshr_rc] = 0
gpgpu_stall_shd_mem[t_mem][icnt_rc] = 0
gpgpu_stall_shd_mem[t_mem][data_port_stall] = 0
gpgpu_stall_shd_mem[s_mem][bk_conf] = 0
gpgpu_stall_shd_mem[gl_mem][bk_conf] = 0
gpgpu_stall_shd_mem[gl_mem][coal_stall] = 3
gpgpu_stall_shd_mem[gl_mem][data_port_stall] = 0
gpgpu_stall_shd_mem[g_mem_ld][mshr_rc] = 0
gpgpu_stall_shd_mem[g_mem_ld][icnt_rc] = 330
gpgpu_stall_shd_mem[g_mem_ld][wb_icnt_rc] = 0
gpgpu_stall_shd_mem[g_mem_ld][wb_rsrv_fail] = 0
gpgpu_stall_shd_mem[g_mem_st][mshr_rc] = 0
gpgpu_stall_shd_mem[g_mem_st][icnt_rc] = 0
gpgpu_stall_shd_mem[g_mem_st][wb_icnt_rc] = 0
gpgpu_stall_shd_mem[g_mem_st][wb_rsrv_fail] = 0
gpgpu_stall_shd_mem[l_mem_ld][mshr_rc] = 0
gpgpu_stall_shd_mem[l_mem_ld][icnt_rc] = 0
gpgpu_stall_shd_mem[l_mem_ld][wb_icnt_rc] = 0
gpgpu_stall_shd_mem[l_mem_ld][wb_rsrv_fail] = 0
gpgpu_stall_shd_mem[l_mem_st][mshr_rc] = 0
gpgpu_stall_shd_mem[l_mem_st][icnt_rc] = 0
gpgpu_stall_shd_mem[l_mem_ld][wb_icnt_rc] = 0
gpgpu_stall_shd_mem[l_mem_ld][wb_rsrv_fail] = 0
gpu_reg_bank_conflict_stalls = 0
Warp Occupancy Distribution:
Stall:20375	W0_Idle:50568	W0_Scoreboard:102156	W1:291	W2:0	W3:0	W4:0	W5:0	W6:0	W7:0	W8:0	W9:0	W10:0	W11:0	W12:0	W13:0	W14:0	W15:0	W16:0	W17:0	W18:0	W19:0	W20:0	W21:0	W22:0	W23:0	W24:0	W25:0	W26:0	W27:0	W28:0	W29:0	W30:0	W31:0	W32:77824
traffic_breakdown_coretomem[CONST_ACC_R] = 224 {8:28,}
traffic_breakdown_coretomem[GLOBAL_ACC_R] = 33104 {8:4138,}
traffic_breakdown_coretomem[GLOBAL_ACC_W] = 1960 {40:49,}
traffic_breakdown_coretomem[INST_ACC_R] = 1128 {8:141,}
traffic_breakdown_memtocore[CONST_ACC_R] = 2016 {72:28,}
traffic_breakdown_memtocore[GLOBAL_ACC_R] = 165520 {40:4138,}
traffic_breakdown_memtocore[GLOBAL_ACC_W] = 392 {8:49,}
traffic_breakdown_memtocore[INST_ACC_R] = 19176 {136:141,}
maxmrqlatency = 122 
maxdqlatency = 0 
[...]
F:  3128470----T:  3128730 	 St: 803b7000 Sz: 4096 	 Sm: 0 	 T: memcpy_h2d(0.175557)
F:  3128730----T:  3128990 	 St: 803af000 Sz: 4096 	 Sm: 0 	 T: memcpy_h2d(0.175557)
F:  3128990----T:  3129250 	 St: 80385000 Sz: 4096 	 Sm: 0 	 T: memcpy_h2d(0.175557)
F:  3129250----T:  3129510 	 St: 803cb000 Sz: 4096 	 Sm: 0 	 T: memcpy_h2d(0.175557)
F:  3129510----T:  3129770 	 St: 803bb000 Sz: 4096 	 Sm: 0 	 T: memcpy_h2d(0.175557)
F:  3129770----T:  3130030 	 St: 803e9000 Sz: 4096 	 Sm: 0 	 T: memcpy_h2d(0.175557)
F:  3130030----T:  3130290 	 St: 8039e000 Sz: 4096 	 Sm: 0 	 T: memcpy_h2d(0.175557)
F:  3130290----T:  3130550 	 St: 8034c000 Sz: 4096 	 Sm: 0 	 T: memcpy_h2d(0.175557)
F:  3130550----T:  3130810 	 St: 803aa000 Sz: 4096 	 Sm: 0 	 T: memcpy_h2d(0.175557)
F:  3130810----T:  3131070 	 St: 803d7000 Sz: 4096 	 Sm: 0 	 T: memcpy_h2d(0.175557)
F:  3131070----T:  3131330 	 St: 803d8000 Sz: 4096 	 Sm: 0 	 T: memcpy_h2d(0.175557)
F:  3131330----T:  3131590 	 St: 803ef000 Sz: 4096 	 Sm: 0 	 T: memcpy_h2d(0.175557)
F:  3131590----T:  3131850 	 St: 803e0000 Sz: 4096 	 Sm: 0 	 T: memcpy_h2d(0.175557)
F:  3131850----T:  3132110 	 St: 803e6000 Sz: 4096 	 Sm: 0 	 T: memcpy_h2d(0.175557)
F:  3132110----T:  3132370 	 St: 803a4000 Sz: 4096 	 Sm: 0 	 T: memcpy_h2d(0.175557)
F:  3132370----T:  3132630 	 St: 803e1000 Sz: 4096 	 Sm: 0 	 T: memcpy_h2d(0.175557)
F:  3132630----T:  3132890 	 St: 8031d000 Sz: 4096 	 Sm: 0 	 T: memcpy_h2d(0.175557)
F:  3132890----T:  3133150 	 St: 80440000 Sz: 4096 	 Sm: 0 	 T: memcpy_h2d(0.175557)
F:  3133150----T:  3133410 	 St: 803df000 Sz: 4096 	 Sm: 0 	 T: memcpy_h2d(0.175557)
F:  3133410----T:  3133670 	 St: 803e4000 Sz: 4096 	 Sm: 0 	 T: memcpy_h2d(0.175557)
F:  3133670----T:  3133930 	 St: 803e5000 Sz: 4096 	 Sm: 0 	 T: memcpy_h2d(0.175557)
F:  3133930----T:  3134190 	 St: 803d6000 Sz: 4096 	 Sm: 0 	 T: memcpy_h2d(0.175557)
F:  3134190----T:  3134450 	 St: 803ce000 Sz: 4096 	 Sm: 0 	 T: memcpy_h2d(0.175557)
F:  3134450----T:  3134710 	 St: 80323000 Sz: 4096 	 Sm: 0 	 T: memcpy_h2d(0.175557)
F:  3134710----T:  3134970 	 St: 80350000 Sz: 4096 	 Sm: 0 	 T: memcpy_h2d(0.175557)
F:  3134970----T:  3135230 	 St: 8031e000 Sz: 4096 	 Sm: 0 	 T: memcpy_h2d(0.175557)
F:  3135230----T:  3135490 	 St: 8036f000 Sz: 4096 	 Sm: 0 	 T: memcpy_h2d(0.175557)
F:  3135490----T:  3135750 	 St: 803c1000 Sz: 4096 	 Sm: 0 	 T: memcpy_h2d(0.175557)
F:  3135750----T:  3136010 	 St: 803ca000 Sz: 4096 	 Sm: 0 	 T: memcpy_h2d(0.175557)
F:  3136010----T:  3136270 	 St: 8042e000 Sz: 4096 	 Sm: 0 	 T: memcpy_h2d(0.175557)
F:  3136270----T:  3136530 	 St: 803d5000 Sz: 4096 	 Sm: 0 	 T: memcpy_h2d(0.175557)
F:  3136530----T:  3136790 	 St: 803ad000 Sz: 4096 	 Sm: 0 	 T: memcpy_h2d(0.175557)
F:  3136790----T:  3137050 	 St: 803ff000 Sz: 4096 	 Sm: 0 	 T: memcpy_h2d(0.175557)
F:  3137050----T:  3137310 	 St: 803ab000 Sz: 4096 	 Sm: 0 	 T: memcpy_h2d(0.175557)
F:  3137310----T:  3137570 	 St: 80405000 Sz: 4096 	 Sm: 0 	 T: memcpy_h2d(0.175557)
F:  3137570----T:  3137830 	 St: 80406000 Sz: 4096 	 Sm: 0 	 T: memcpy_h2d(0.175557)
F:  3137830----T:  3138090 	 St: 80324000 Sz: 4096 	 Sm: 0 	 T: memcpy_h2d(0.175557)
F:  3138090----T:  3138350 	 St: 803f5000 Sz: 4096 	 Sm: 0 	 T: memcpy_h2d(0.175557)
F:  3138350----T:  3138610 	 St: 803d9000 Sz: 4096 	 Sm: 0 	 T: memcpy_h2d(0.175557)
F:  3138610----T:  3138870 	 St: 803a7000 Sz: 4096 	 Sm: 0 	 T: memcpy_h2d(0.175557)
F:  3138870----T:  3139130 	 St: 803eb000 Sz: 4096 	 Sm: 0 	 T: memcpy_h2d(0.175557)
F:  3139130----T:  3139390 	 St: 803c0000 Sz: 4096 	 Sm: 0 	 T: memcpy_h2d(0.175557)
F:  3139390----T:  3139650 	 St: 80431000 Sz: 4096 	 Sm: 0 	 T: memcpy_h2d(0.175557)
F:  3139650----T:  3139910 	 St: 80400000 Sz: 4096 	 Sm: 0 	 T: memcpy_h2d(0.175557)
F:  3139910----T:  3140170 	 St: 803f2000 Sz: 4096 	 Sm: 0 	 T: memcpy_h2d(0.175557)
F:  3140170----T:  3140430 	 St: 8042f000 Sz: 4096 	 Sm: 0 	 T: memcpy_h2d(0.175557)
F:  3140430----T:  3140690 	 St: 80428000 Sz: 4096 	 Sm: 0 	 T: memcpy_h2d(0.175557)
F:  3140690----T:  3140950 	 St: 803ae000 Sz: 4096 	 Sm: 0 	 T: memcpy_h2d(0.175557)
F:  3140950----T:  3141210 	 St: 80442000 Sz: 4096 	 Sm: 0 	 T: memcpy_h2d(0.175557)
F:  3141210----T:  3141470 	 St: 80441000 Sz: 4096 	 Sm: 0 	 T: memcpy_h2d(0.175557)
F:  3141470----T:  3141730 	 St: 803ec000 Sz: 4096 	 Sm: 0 	 T: memcpy_h2d(0.175557)
F:  3141730----T:  3141990 	 St: 80427000 Sz: 4096 	 Sm: 0 	 T: memcpy_h2d(0.175557)
F:  3141990----T:  3142250 	 St: 80410000 Sz: 4096 	 Sm: 0 	 T: memcpy_h2d(0.175557)
F:  3142250----T:  3142510 	 St: 80401000 Sz: 4096 	 Sm: 0 	 T: memcpy_h2d(0.175557)
F:  3142510----T:  3142770 	 St: 803f1000 Sz: 4096 	 Sm: 0 	 T: memcpy_h2d(0.175557)
F:  3142770----T:  3143030 	 St: 803f0000 Sz: 4096 	 Sm: 0 	 T: memcpy_h2d(0.175557)
F:  3143030----T:  3143290 	 St: 80412000 Sz: 4096 	 Sm: 0 	 T: memcpy_h2d(0.175557)
F:  3143290----T:  3143550 	 St: 8041a000 Sz: 4096 	 Sm: 0 	 T: memcpy_h2d(0.175557)
F:  3143550----T:  3143810 	 St: 8042b000 Sz: 4096 	 Sm: 0 	 T: memcpy_h2d(0.175557)
F:  3143810----T:  3144070 	 St: 803c9000 Sz: 4096 	 Sm: 0 	 T: memcpy_h2d(0.175557)
F:  3144070----T:  3144330 	 St: 803a6000 Sz: 4096 	 Sm: 0 	 T: memcpy_h2d(0.175557)
F:  3144330----T:  3144590 	 St: 80423000 Sz: 4096 	 Sm: 0 	 T: memcpy_h2d(0.175557)
F:  3144590----T:  3144850 	 St: 8043b000 Sz: 4096 	 Sm: 0 	 T: memcpy_h2d(0.175557)
F:  3144850----T:  3145110 	 St: 80432000 Sz: 4096 	 Sm: 0 	 T: memcpy_h2d(0.175557)
F:  3145110----T:  3145370 	 St: 80413000 Sz: 4096 	 Sm: 0 	 T: memcpy_h2d(0.175557)
F:  3145370----T:  3145630 	 St: 80433000 Sz: 4096 	 Sm: 0 	 T: memcpy_h2d(0.175557)
F:  3145630----T:  3145890 	 St: 80434000 Sz: 4096 	 Sm: 0 	 T: memcpy_h2d(0.175557)
F:  3145890----T:  3146150 	 St: 803de000 Sz: 4096 	 Sm: 0 	 T: memcpy_h2d(0.175557)
F:  3146150----T:  3146410 	 St: 803a8000 Sz: 4096 	 Sm: 0 	 T: memcpy_h2d(0.175557)
F:  3146410----T:  3146670 	 St: 80416000 Sz: 4096 	 Sm: 0 	 T: memcpy_h2d(0.175557)
F:  3146670----T:  3146930 	 St: 803a9000 Sz: 4096 	 Sm: 0 	 T: memcpy_h2d(0.175557)
F:  3146930----T:  3147190 	 St: 80415000 Sz: 4096 	 Sm: 0 	 T: memcpy_h2d(0.175557)
F:  3147190----T:  3147450 	 St: 80411000 Sz: 4096 	 Sm: 0 	 T: memcpy_h2d(0.175557)
F:  3147450----T:  3147710 	 St: 803a5000 Sz: 4096 	 Sm: 0 	 T: memcpy_h2d(0.175557)
F:  3147710----T:  3147970 	 St: 80430000 Sz: 4096 	 Sm: 0 	 T: memcpy_h2d(0.175557)
F:  3147970----T:  3148230 	 St: 8042d000 Sz: 4096 	 Sm: 0 	 T: memcpy_h2d(0.175557)
F:  3148230----T:  3148490 	 St: 80329000 Sz: 4096 	 Sm: 0 	 T: memcpy_h2d(0.175557)
F:  3148490----T:  3148750 	 St: 80402000 Sz: 4096 	 Sm: 0 	 T: memcpy_h2d(0.175557)
F:  3148750----T:  3149010 	 St: 80414000 Sz: 4096 	 Sm: 0 	 T: memcpy_h2d(0.175557)
F:  3149010----T:  3149270 	 St: 803e7000 Sz: 4096 	 Sm: 0 	 T: memcpy_h2d(0.175557)
F:  3149270----T:  3149530 	 St: 8032a000 Sz: 4096 	 Sm: 0 	 T: memcpy_h2d(0.175557)
F:  3149530----T:  3149790 	 St: 8043a000 Sz: 4096 	 Sm: 0 	 T: memcpy_h2d(0.175557)
F:  3149790----T:  3150050 	 St: 80443000 Sz: 4096 	 Sm: 0 	 T: memcpy_h2d(0.175557)
F:  3150050----T:  3150310 	 St: 80417000 Sz: 4096 	 Sm: 0 	 T: memcpy_h2d(0.175557)
F:  3150310----T:  3150570 	 St: 803e8000 Sz: 4096 	 Sm: 0 	 T: memcpy_h2d(0.175557)
F:  3150570----T:  3150830 	 St: 8043c000 Sz: 4096 	 Sm: 0 	 T: memcpy_h2d(0.175557)
F:  3150830----T:  3151090 	 St: 8043d000 Sz: 4096 	 Sm: 0 	 T: memcpy_h2d(0.175557)
F:  3151090----T:  3151350 	 St: 8041d000 Sz: 4096 	 Sm: 0 	 T: memcpy_h2d(0.175557)
F:  3151350----T:  3151610 	 St: 8041e000 Sz: 4096 	 Sm: 0 	 T: memcpy_h2d(0.175557)
F:  3151610----T:  3151870 	 St: 8041c000 Sz: 4096 	 Sm: 0 	 T: memcpy_h2d(0.175557)
F:  3151870----T:  3152130 	 St: 803fe000 Sz: 4096 	 Sm: 0 	 T: memcpy_h2d(0.175557)
F:  3152130----T:  3152390 	 St: 803fb000 Sz: 4096 	 Sm: 0 	 T: memcpy_h2d(0.175557)
F:  3152390----T:  3152650 	 St: 80403000 Sz: 4096 	 Sm: 0 	 T: memcpy_h2d(0.175557)
F:  3152650----T:  3152910 	 St: 803f6000 Sz: 4096 	 Sm: 0 	 T: memcpy_h2d(0.175557)
F:  3152910----T:  3153170 	 St: 80444000 Sz: 4096 	 Sm: 0 	 T: memcpy_h2d(0.175557)
F:  3153170----T:  3153430 	 St: 80408000 Sz: 4096 	 Sm: 0 	 T: memcpy_h2d(0.175557)
F:  3153430----T:  3153690 	 St: 80422000 Sz: 4096 	 Sm: 0 	 T: memcpy_h2d(0.175557)
F:  3153690----T:  3153950 	 St: 80445000 Sz: 4096 	 Sm: 0 	 T: memcpy_h2d(0.175557)
F:  3153950----T:  3154210 	 St: 8041b000 Sz: 4096 	 Sm: 0 	 T: memcpy_h2d(0.175557)
F:  3154210----T:  3154470 	 St: 8042c000 Sz: 4096 	 Sm: 0 	 T: memcpy_h2d(0.175557)
F:  3154470----T:  3154730 	 St: 80407000 Sz: 4096 	 Sm: 0 	 T: memcpy_h2d(0.175557)
F:  3154730----T:  3154990 	 St: 80435000 Sz: 4096 	 Sm: 0 	 T: memcpy_h2d(0.175557)
F:  3154990----T:  3155250 	 St: 80409000 Sz: 4096 	 Sm: 0 	 T: memcpy_h2d(0.175557)
F:  3155250----T:  3155510 	 St: 8043f000 Sz: 4096 	 Sm: 0 	 T: memcpy_h2d(0.175557)
F:  3155510----T:  3155770 	 St: 8041f000 Sz: 4096 	 Sm: 0 	 T: memcpy_h2d(0.175557)
F:  3155770----T:  3156030 	 St: 80418000 Sz: 4096 	 Sm: 0 	 T: memcpy_h2d(0.175557)
F:  3156030----T:  3156290 	 St: 80424000 Sz: 4096 	 Sm: 0 	 T: memcpy_h2d(0.175557)
F:  3156290----T:  3156550 	 St: 803f9000 Sz: 4096 	 Sm: 0 	 T: memcpy_h2d(0.175557)
F:  3156550----T:  3156810 	 St: 80429000 Sz: 4096 	 Sm: 0 	 T: memcpy_h2d(0.175557)
F:  3156810----T:  3157070 	 St: 8042a000 Sz: 4096 	 Sm: 0 	 T: memcpy_h2d(0.175557)
F:  3157070----T:  3157330 	 St: 80421000 Sz: 4096 	 Sm: 0 	 T: memcpy_h2d(0.175557)
F:  3157330----T:  3157590 	 St: 803f7000 Sz: 4096 	 Sm: 0 	 T: memcpy_h2d(0.175557)
F:  3157590----T:  3157850 	 St: 803fa000 Sz: 4096 	 Sm: 0 	 T: memcpy_h2d(0.175557)
F:  3157850----T:  3158110 	 St: 80439000 Sz: 4096 	 Sm: 0 	 T: memcpy_h2d(0.175557)
F:  3408892----T:  3413374 	 	 	 Kl: 14 	 Sm: 0 	 T: kernel_launch(3.026334)
F:  3413374----T:  3413627 	 St: 80000000 Sz: 1 	 Sm: 0 	 T: memcpy_d2h(0.170831)
F:  3413628----T:  3413881 	 St: 80000000 Sz: 1 	 Sm: 0 	 T: memcpy_h2d(0.170831)
F:  3636032----T:  3670031 	 	 	 Kl: 15 	 Sm: 0 	 T: kernel_launch(22.956785)
F:  3637517----T:  3637777 	 St: 8032d000 Sz: 4096 	 Sm: 0 	 T: memcpy_h2d(0.175557)
F:  3637777----T:  3638037 	 St: 80382000 Sz: 4096 	 Sm: 0 	 T: memcpy_h2d(0.175557)
F:  3638037----T:  3638297 	 St: 80335000 Sz: 4096 	 Sm: 0 	 T: memcpy_h2d(0.175557)
F:  3638297----T:  3638557 	 St: 80319000 Sz: 4096 	 Sm: 0 	 T: memcpy_h2d(0.175557)
F:  3638557----T:  3638817 	 St: 80344000 Sz: 4096 	 Sm: 0 	 T: memcpy_h2d(0.175557)
F:  3638817----T:  3639077 	 St: 8039a000 Sz: 4096 	 Sm: 0 	 T: memcpy_h2d(0.175557)
F:  3639077----T:  3639337 	 St: 8039b000 Sz: 4096 	 Sm: 0 	 T: memcpy_h2d(0.175557)
F:  3639337----T:  3639597 	 St: 802ff000 Sz: 4096 	 Sm: 0 	 T: memcpy_h2d(0.175557)
F:  3639597----T:  3639857 	 St: 80389000 Sz: 4096 	 Sm: 0 	 T: memcpy_h2d(0.175557)
F:  3639857----T:  3640117 	 St: 8038a000 Sz: 4096 	 Sm: 0 	 T: memcpy_h2d(0.175557)
F:  3640117----T:  3640377 	 St: 80336000 Sz: 4096 	 Sm: 0 	 T: memcpy_h2d(0.175557)
F:  3640377----T:  3640637 	 St: 80347000 Sz: 4096 	 Sm: 0 	 T: memcpy_h2d(0.175557)
F:  3640637----T:  3640897 	 St: 80369000 Sz: 4096 	 Sm: 0 	 T: memcpy_h2d(0.175557)
F:  3640897----T:  3641157 	 St: 80393000 Sz: 4096 	 Sm: 0 	 T: memcpy_h2d(0.175557)
F:  3641157----T:  3641417 	 St: 803c8000 Sz: 4096 	 Sm: 0 	 T: memcpy_h2d(0.175557)
F:  3641417----T:  3641677 	 St: 8036c000 Sz: 4096 	 Sm: 0 	 T: memcpy_h2d(0.175557)
F:  3641677----T:  3641937 	 St: 803ed000 Sz: 4096 	 Sm: 0 	 T: memcpy_h2d(0.175557)
F:  3641937----T:  3642197 	 St: 803d3000 Sz: 4096 	 Sm: 0 	 T: memcpy_h2d(0.175557)
F:  3642197----T:  3642457 	 St: 803b3000 Sz: 4096 	 Sm: 0 	 T: memcpy_h2d(0.175557)
F:  3642457----T:  3642717 	 St: 803da000 Sz: 4096 	 Sm: 0 	 T: memcpy_h2d(0.175557)
F:  3642717----T:  3642977 	 St: 803c7000 Sz: 4096 	 Sm: 0 	 T: memcpy_h2d(0.175557)
F:  3642977----T:  3643237 	 St: 803ba000 Sz: 4096 	 Sm: 0 	 T: memcpy_h2d(0.175557)
F:  3643237----T:  3643497 	 St: 803b4000 Sz: 4096 	 Sm: 0 	 T: memcpy_h2d(0.175557)
F:  3643497----T:  3643757 	 St: 803b9000 Sz: 4096 	 Sm: 0 	 T: memcpy_h2d(0.175557)
F:  3643757----T:  3644017 	 St: 803c6000 Sz: 4096 	 Sm: 0 	 T: memcpy_h2d(0.175557)
F:  3644017----T:  3644277 	 St: 803bf000 Sz: 4096 	 Sm: 0 	 T: memcpy_h2d(0.175557)
F:  3644277----T:  3644537 	 St: 803ee000 Sz: 4096 	 Sm: 0 	 T: memcpy_h2d(0.175557)
F:  3644537----T:  3644797 	 St: 803ac000 Sz: 4096 	 Sm: 0 	 T: memcpy_h2d(0.175557)
F:  3644797----T:  3645057 	 St: 803a0000 Sz: 4096 	 Sm: 0 	 T: memcpy_h2d(0.175557)
F:  3645057----T:  3645317 	 St: 803d2000 Sz: 4096 	 Sm: 0 	 T: memcpy_h2d(0.175557)
F:  3645317----T:  3645577 	 St: 803a1000 Sz: 4096 	 Sm: 0 	 T: memcpy_h2d(0.175557)
F:  3645577----T:  3645837 	 St: 803bc000 Sz: 4096 	 Sm: 0 	 T: memcpy_h2d(0.175557)
F:  3645837----T:  3646097 	 St: 803ea000 Sz: 4096 	 Sm: 0 	 T: memcpy_h2d(0.175557)
F:  3646097----T:  3646357 	 St: 803a3000 Sz: 4096 	 Sm: 0 	 T: memcpy_h2d(0.175557)
F:  3646357----T:  3646617 	 St: 80388000 Sz: 4096 	 Sm: 0 	 T: memcpy_h2d(0.175557)
F:  3646617----T:  3646877 	 St: 803e2000 Sz: 4096 	 Sm: 0 	 T: memcpy_h2d(0.175557)
F:  3646877----T:  3647137 	 St: 803cc000 Sz: 4096 	 Sm: 0 	 T: memcpy_h2d(0.175557)
F:  3647137----T:  3647397 	 St: 803dd000 Sz: 4096 	 Sm: 0 	 T: memcpy_h2d(0.175557)
F:  3647397----T:  3647657 	 St: 803a2000 Sz: 4096 	 Sm: 0 	 T: memcpy_h2d(0.175557)
F:  3647657----T:  3647917 	 St: 803c3000 Sz: 4096 	 Sm: 0 	 T: memcpy_h2d(0.175557)
F:  3647917----T:  3648177 	 St: 803be000 Sz: 4096 	 Sm: 0 	 T: memcpy_h2d(0.175557)
F:  3648177----T:  3648437 	 St: 8035a000 Sz: 4096 	 Sm: 0 	 T: memcpy_h2d(0.175557)
F:  3648437----T:  3648697 	 St: 803d0000 Sz: 4096 	 Sm: 0 	 T: memcpy_h2d(0.175557)
F:  3648697----T:  3648957 	 St: 803c4000 Sz: 4096 	 Sm: 0 	 T: memcpy_h2d(0.175557)
F:  3648957----T:  3649217 	 St: 803bd000 Sz: 4096 	 Sm: 0 	 T: memcpy_h2d(0.175557)
F:  3649217----T:  3649477 	 St: 803b2000 Sz: 4096 	 Sm: 0 	 T: memcpy_h2d(0.175557)
F:  3649477----T:  3649737 	 St: 803b5000 Sz: 4096 	 Sm: 0 	 T: memcpy_h2d(0.175557)
F:  3649737----T:  3649997 	 St: 8040c000 Sz: 4096 	 Sm: 0 	 T: memcpy_h2d(0.175557)
F:  3649997----T:  3650257 	 St: 8040d000 Sz: 4096 	 Sm: 0 	 T: memcpy_h2d(0.175557)
F:  3650257----T:  3650517 	 St: 803b1000 Sz: 4096 	 Sm: 0 	 T: memcpy_h2d(0.175557)
F:  3650517----T:  3650777 	 St: 803dc000 Sz: 4096 	 Sm: 0 	 T: memcpy_h2d(0.175557)
F:  3650777----T:  3651037 	 St: 8040b000 Sz: 4096 	 Sm: 0 	 T: memcpy_h2d(0.175557)
F:  3651037----T:  3651297 	 St: 803c5000 Sz: 4096 	 Sm: 0 	 T: memcpy_h2d(0.175557)
F:  3651297----T:  3651557 	 St: 803cd000 Sz: 4096 	 Sm: 0 	 T: memcpy_h2d(0.175557)
F:  3651557----T:  3651817 	 St: 80420000 Sz: 4096 	 Sm: 0 	 T: memcpy_h2d(0.175557)
F:  3651817----T:  3652077 	 St: 8040f000 Sz: 4096 	 Sm: 0 	 T: memcpy_h2d(0.175557)
F:  3652077----T:  3652337 	 St: 80437000 Sz: 4096 	 Sm: 0 	 T: memcpy_h2d(0.175557)
F:  3652337----T:  3652597 	 St: 803b0000 Sz: 4096 	 Sm: 0 	 T: memcpy_h2d(0.175557)
F:  3652597----T:  3652857 	 St: 8043e000 Sz: 4096 	 Sm: 0 	 T: memcpy_h2d(0.175557)
F:  3652857----T:  3653117 	 St: 8040e000 Sz: 4096 	 Sm: 0 	 T: memcpy_h2d(0.175557)
F:  3653117----T:  3653377 	 St: 80436000 Sz: 4096 	 Sm: 0 	 T: memcpy_h2d(0.175557)
F:  3653377----T:  3653637 	 St: 803fc000 Sz: 4096 	 Sm: 0 	 T: memcpy_h2d(0.175557)
F:  3653637----T:  3653897 	 St: 80426000 Sz: 4096 	 Sm: 0 	 T: memcpy_h2d(0.175557)
F:  3653897----T:  3654157 	 St: 803f3000 Sz: 4096 	 Sm: 0 	 T: memcpy_h2d(0.175557)
F:  3892181----T:  3894279 	 	 	 Kl: 16 	 Sm: 0 	 T: kernel_launch(1.416610)
F:  3894279----T:  3894532 	 St: 80000000 Sz: 1 	 Sm: 0 	 T: memcpy_d2h(0.170831)
F:  3894533----T:  3894786 	 St: 80000000 Sz: 1 	 Sm: 0 	 T: memcpy_h2d(0.170831)
F:  4116937----T:  4126837 	 	 	 Kl: 17 	 Sm: 0 	 T: kernel_launch(6.684672)
F:  4117910----T:  4118170 	 St: 802f7000 Sz: 4096 	 Sm: 0 	 T: memcpy_h2d(0.175557)
F:  4118170----T:  4118430 	 St: 80339000 Sz: 4096 	 Sm: 0 	 T: memcpy_h2d(0.175557)
F:  4118430----T:  4118690 	 St: 8030e000 Sz: 4096 	 Sm: 0 	 T: memcpy_h2d(0.175557)
F:  4118690----T:  4118950 	 St: 80309000 Sz: 4096 	 Sm: 0 	 T: memcpy_h2d(0.175557)
F:  4118950----T:  4119210 	 St: 80324000 Sz: 4096 	 Sm: 0 	 T: memcpy_h2d(0.175557)
F:  4119210----T:  4119470 	 St: 80345000 Sz: 4096 	 Sm: 0 	 T: memcpy_h2d(0.175557)
F:  4119470----T:  4119730 	 St: 80307000 Sz: 4096 	 Sm: 0 	 T: memcpy_h2d(0.175557)
F:  4119730----T:  4119990 	 St: 80315000 Sz: 4096 	 Sm: 0 	 T: memcpy_h2d(0.175557)
F:  4119990----T:  4120250 	 St: 8032d000 Sz: 4096 	 Sm: 0 	 T: memcpy_h2d(0.175557)
F:  4120250----T:  4120510 	 St: 80313000 Sz: 4096 	 Sm: 0 	 T: memcpy_h2d(0.175557)
F:  4120510----T:  4120770 	 St: 80331000 Sz: 4096 	 Sm: 0 	 T: memcpy_h2d(0.175557)
F:  4120770----T:  4121030 	 St: 80349000 Sz: 4096 	 Sm: 0 	 T: memcpy_h2d(0.175557)
F:  4121030----T:  4121290 	 St: 80374000 Sz: 4096 	 Sm: 0 	 T: memcpy_h2d(0.175557)
F:  4121290----T:  4121550 	 St: 80340000 Sz: 4096 	 Sm: 0 	 T: memcpy_h2d(0.175557)
F:  4121550----T:  4121810 	 St: 80314000 Sz: 4096 	 Sm: 0 	 T: memcpy_h2d(0.175557)
F:  4121810----T:  4122070 	 St: 80327000 Sz: 4096 	 Sm: 0 	 T: memcpy_h2d(0.175557)
F:  4122070----T:  4122330 	 St: 80356000 Sz: 4096 	 Sm: 0 	 T: memcpy_h2d(0.175557)
F:  4122330----T:  4122590 	 St: 80384000 Sz: 4096 	 Sm: 0 	 T: memcpy_h2d(0.175557)
F:  4122590----T:  4122850 	 St: 80376000 Sz: 4096 	 Sm: 0 	 T: memcpy_h2d(0.175557)
F:  4122850----T:  4123110 	 St: 8039c000 Sz: 4096 	 Sm: 0 	 T: memcpy_h2d(0.175557)
F:  4123110----T:  4123370 	 St: 8038f000 Sz: 4096 	 Sm: 0 	 T: memcpy_h2d(0.175557)
F:  4123370----T:  4123630 	 St: 80351000 Sz: 4096 	 Sm: 0 	 T: memcpy_h2d(0.175557)
F:  4123630----T:  4123890 	 St: 8038d000 Sz: 4096 	 Sm: 0 	 T: memcpy_h2d(0.175557)
F:  4123890----T:  4124150 	 St: 8035d000 Sz: 4096 	 Sm: 0 	 T: memcpy_h2d(0.175557)
F:  4124150----T:  4124410 	 St: 80396000 Sz: 4096 	 Sm: 0 	 T: memcpy_h2d(0.175557)
F:  4124410----T:  4124670 	 St: 8036d000 Sz: 4096 	 Sm: 0 	 T: memcpy_h2d(0.175557)
F:  4124670----T:  4124930 	 St: 80383000 Sz: 4096 	 Sm: 0 	 T: memcpy_h2d(0.175557)
F:  4124930----T:  4125190 	 St: 80371000 Sz: 4096 	 Sm: 0 	 T: memcpy_h2d(0.175557)
F:  4125190----T:  4125450 	 St: 80385000 Sz: 4096 	 Sm: 0 	 T: memcpy_h2d(0.175557)
F:  4125450----T:  4125710 	 St: 80386000 Sz: 4096 	 Sm: 0 	 T: memcpy_h2d(0.175557)
F:  4348987----T:  4350085 	 	 	 Kl: 18 	 Sm: 0 	 T: kernel_launch(0.741391)
F:  4350085----T:  4350338 	 St: 80000000 Sz: 1 	 Sm: 0 	 T: memcpy_d2h(0.170831)
F:  4350339----T:  4350592 	 St: 80000000 Sz: 1 	 Sm: 0 	 T: memcpy_h2d(0.170831)
F:  4572743----T:  4574959 	 	 	 Kl: 19 	 Sm: 0 	 T: kernel_launch(1.496286)
F:  4797109----T:  4798080 	 	 	 Kl: 20 	 Sm: 0 	 T: kernel_launch(0.655638)
F:  4798080----T:  4798333 	 St: 80000000 Sz: 1 	 Sm: 0 	 T: memcpy_d2h(0.170831)
F:  4798334----T:  4798594 	 St: 0 Sz: 4096 	 Sm: 0 	 T: device_sync(0.175557)
F:  4798334----T:  4799158 	 St: 0 Sz: 61440 	 Sm: 0 	 T: device_sync(0.556381)
F:  4799418----T:  4799678 	 St: 0 Sz: 4096 	 Sm: 0 	 T: device_sync(0.175557)
F:  4799418----T:  4800242 	 St: 0 Sz: 61440 	 Sm: 0 	 T: device_sync(0.556381)
F:  4800502----T:  4800762 	 St: 0 Sz: 4096 	 Sm: 0 	 T: device_sync(0.175557)
F:  4800502----T:  4802071 	 St: 0 Sz: 126976 	 Sm: 0 	 T: device_sync(1.059419)
F:  4802331----T:  4802591 	 St: 0 Sz: 4096 	 Sm: 0 	 T: device_sync(0.175557)
F:  4802331----T:  4804651 	 St: 0 Sz: 192512 	 Sm: 0 	 T: device_sync(1.566509)
Tot_prefetch_time: 0(cycle), 0.000000(us)
Tot_kernel_exec_time: 350254(cycle), 236.498306(us)
Tot_kernel_exec_time_and_fault_time: 53999479(cycle), 36461.500000(us)
Tot_memcpy_h2d_time: 235427(cycle), 158.964890(us)
Tot_memcpy_d2h_time: 2530(cycle), 1.708305(us)
Tot_memcpy_time: 237957(cycle), 160.673187(us)
Tot_devicesync_time: 6577(cycle), 4.440918(us)
Tot_writeback_time: 7800(cycle), 5.266712(us)
Tot_rdma_time: 0(cycle), 0.000000(us)
Tot_memcpy_d2h_sync_wb_time: 16907(cycle), 11.415936(us)
GPGPU-Sim: *** exit detected ***
